! OpenFAST Deterministic Wind File
#
# Comment lines begin with "!" or "#" or "%", then the data lines must contain the following columns:
#
# If there are only 8 columns, upflow is assumed to be 0.
#
# Parameters are interpolated linearly between time steps; using nearest neighbor before the first time
# listed in this file and after the last time listed in the file.
#
! Time     Wind    Wind    Vertical    Horiz.      Pwr.Law     Lin.Vert.   Gust     Upflow
!          Speed   Dir     Speed       Shear       Vert.Shr    Shear       Speed    Angle
! (sec)    (m/s)   (Deg)   (m/s)                                            (m/s)   (deg)
0.0 4.61 0.0 0 0.0 0.3 0.0 0.0
10.0 5.4 0.0 0 0.0 0.3 0.0 0.0
20.0 5.08 0.0 0 0.0 0.3 0.0 0.0
30.0 4.58 0.0 0 0.0 0.3 0.0 0.0
40.0 4.5 0.0 0 0.0 0.3 0.0 0.0
50.0 4.77 0.0 0 0.0 0.3 0.0 0.0
60.0 4.75 0.0 0 0.0 0.3 0.0 0.0
70.0 4.57 0.0 0 0.0 0.3 0.0 0.0
80.0 4.19 0.0 0 0.0 0.3 0.0 0.0
90.0 4.39 0.0 0 0.0 0.3 0.0 0.0
100.0 4.34 0.0 0 0.0 0.3 0.0 0.0
110.0 5.04 0.0 0 0.0 0.3 0.0 0.0
120.0 4.16 0.0 0 0.0 0.3 0.0 0.0
130.0 4.36 0.0 0 0.0 0.3 0.0 0.0
140.0 4.16 0.0 0 0.0 0.3 0.0 0.0
150.0 5.07 0.0 0 0.0 0.3 0.0 0.0
160.0 4.35 0.0 0 0.0 0.3 0.0 0.0
170.0 5.76 0.0 0 0.0 0.3 0.0 0.0
180.0 5.52 0.0 0 0.0 0.3 0.0 0.0
190.0 4.88 0.0 0 0.0 0.3 0.0 0.0
200.0 5.71 0.0 0 0.0 0.3 0.0 0.0
210.0 6.67 0.0 0 0.0 0.3 0.0 0.0
220.0 6.13 0.0 0 0.0 0.3 0.0 0.0
230.0 7.13 0.0 0 0.0 0.3 0.0 0.0
240.0 7.27 0.0 0 0.0 0.3 0.0 0.0
250.0 8.01 0.0 0 0.0 0.3 0.0 0.0
260.0 8.16 0.0 0 0.0 0.3 0.0 0.0
270.0 9.07 0.0 0 0.0 0.3 0.0 0.0
280.0 10.89 0.0 0 0.0 0.3 0.0 0.0
290.0 11.41 0.0 0 0.0 0.3 0.0 0.0
300.0 11.61 0.0 0 0.0 0.3 0.0 0.0
310.0 12.47 0.0 0 0.0 0.3 0.0 0.0
320.0 12.3 0.0 0 0.0 0.3 0.0 0.0
330.0 12.3 0.0 0 0.0 0.3 0.0 0.0
340.0 12.72 0.0 0 0.0 0.3 0.0 0.0
350.0 13.58 0.0 0 0.0 0.3 0.0 0.0
360.0 13.89 0.0 0 0.0 0.3 0.0 0.0
370.0 13.69 0.0 0 0.0 0.3 0.0 0.0
380.0 13.2 0.0 0 0.0 0.3 0.0 0.0
390.0 10.6 0.0 0 0.0 0.3 0.0 0.0
400.0 9.48 0.0 0 0.0 0.3 0.0 0.0
410.0 8.55 0.0 0 0.0 0.3 0.0 0.0
420.0 4.96 0.0 0 0.0 0.3 0.0 0.0
430.0 3.17 0.0 0 0.0 0.3 0.0 0.0
440.0 3.92 0.0 0 0.0 0.3 0.0 0.0
450.0 4.32 0.0 0 0.0 0.3 0.0 0.0
272790.0 4.86 0.0 0 0.0 0.3 0.0 0.0
272800.0 5.33 0.0 0 0.0 0.3 0.0 0.0
272810.0 5.98 0.0 0 0.0 0.3 0.0 0.0
272820.0 5.41 0.0 0 0.0 0.3 0.0 0.0
272830.0 5.8 0.0 0 0.0 0.3 0.0 0.0
272840.0 5.41 0.0 0 0.0 0.3 0.0 0.0
272850.0 5.59 0.0 0 0.0 0.3 0.0 0.0
272860.0 5.7 0.0 0 0.0 0.3 0.0 0.0
272870.0 5.59 0.0 0 0.0 0.3 0.0 0.0
272880.0 6.59 0.0 0 0.0 0.3 0.0 0.0
272890.0 6.31 0.0 0 0.0 0.3 0.0 0.0
272900.0 5.7 0.0 0 0.0 0.3 0.0 0.0
272910.0 5.77 0.0 0 0.0 0.3 0.0 0.0
272920.0 5.38 0.0 0 0.0 0.3 0.0 0.0
272930.0 5.42 0.0 0 0.0 0.3 0.0 0.0
272940.0 5.81 0.0 0 0.0 0.3 0.0 0.0
272950.0 5.36 0.0 0 0.0 0.3 0.0 0.0
272960.0 5.56 0.0 0 0.0 0.3 0.0 0.0
272970.0 6.56 0.0 0 0.0 0.3 0.0 0.0
272980.0 5.26 0.0 0 0.0 0.3 0.0 0.0
272990.0 5.65 0.0 0 0.0 0.3 0.0 0.0
273000.0 6.04 0.0 0 0.0 0.3 0.0 0.0
273010.0 5.99 0.0 0 0.0 0.3 0.0 0.0
273020.0 6.87 0.0 0 0.0 0.3 0.0 0.0
273030.0 7.05 0.0 0 0.0 0.3 0.0 0.0
273040.0 6.9 0.0 0 0.0 0.3 0.0 0.0
273050.0 6.23 0.0 0 0.0 0.3 0.0 0.0
273060.0 6.33 0.0 0 0.0 0.3 0.0 0.0
273070.0 6.34 0.0 0 0.0 0.3 0.0 0.0
273080.0 6.32 0.0 0 0.0 0.3 0.0 0.0
273090.0 6.69 0.0 0 0.0 0.3 0.0 0.0
273100.0 6.32 0.0 0 0.0 0.3 0.0 0.0
273110.0 6.63 0.0 0 0.0 0.3 0.0 0.0
273120.0 6.3 0.0 0 0.0 0.3 0.0 0.0
273130.0 5.12 0.0 0 0.0 0.3 0.0 0.0
273140.0 5.1 0.0 0 0.0 0.3 0.0 0.0
273150.0 5.25 0.0 0 0.0 0.3 0.0 0.0
273160.0 4.64 0.0 0 0.0 0.3 0.0 0.0
273170.0 4.32 0.0 0 0.0 0.3 0.0 0.0
273930.0 4.55 0.0 0 0.0 0.3 0.0 0.0
273940.0 5.01 0.0 0 0.0 0.3 0.0 0.0
273950.0 4.75 0.0 0 0.0 0.3 0.0 0.0
273960.0 4.24 0.0 0 0.0 0.3 0.0 0.0
273970.0 4.53 0.0 0 0.0 0.3 0.0 0.0
273980.0 5.64 0.0 0 0.0 0.3 0.0 0.0
273990.0 6.15 0.0 0 0.0 0.3 0.0 0.0
274000.0 6.31 0.0 0 0.0 0.3 0.0 0.0
274010.0 6.17 0.0 0 0.0 0.3 0.0 0.0
274020.0 5.99 0.0 0 0.0 0.3 0.0 0.0
274030.0 6.17 0.0 0 0.0 0.3 0.0 0.0
274040.0 6.71 0.0 0 0.0 0.3 0.0 0.0
274050.0 6.03 0.0 0 0.0 0.3 0.0 0.0
274060.0 5.58 0.0 0 0.0 0.3 0.0 0.0
274070.0 5.19 0.0 0 0.0 0.3 0.0 0.0
274080.0 5.68 0.0 0 0.0 0.3 0.0 0.0
274090.0 6.47 0.0 0 0.0 0.3 0.0 0.0
274100.0 6.18 0.0 0 0.0 0.3 0.0 0.0
274110.0 5.66 0.0 0 0.0 0.3 0.0 0.0
274120.0 5.29 0.0 0 0.0 0.3 0.0 0.0
274130.0 5.52 0.0 0 0.0 0.3 0.0 0.0
274140.0 6.04 0.0 0 0.0 0.3 0.0 0.0
274150.0 5.89 0.0 0 0.0 0.3 0.0 0.0
274160.0 5.4 0.0 0 0.0 0.3 0.0 0.0
274170.0 3.86 0.0 0 0.0 0.3 0.0 0.0
274180.0 4.15 0.0 0 0.0 0.3 0.0 0.0
274190.0 5.19 0.0 0 0.0 0.3 0.0 0.0
274200.0 4.88 0.0 0 0.0 0.3 0.0 0.0
274210.0 4.91 0.0 0 0.0 0.3 0.0 0.0
274220.0 4.44 0.0 0 0.0 0.3 0.0 0.0
274230.0 4.83 0.0 0 0.0 0.3 0.0 0.0
274240.0 4.94 0.0 0 0.0 0.3 0.0 0.0
274250.0 4.75 0.0 0 0.0 0.3 0.0 0.0
274260.0 4.22 0.0 0 0.0 0.3 0.0 0.0
274270.0 4.23 0.0 0 0.0 0.3 0.0 0.0
274280.0 4.23 0.0 0 0.0 0.3 0.0 0.0
274290.0 5.0 0.0 0 0.0 0.3 0.0 0.0
274300.0 4.89 0.0 0 0.0 0.3 0.0 0.0
274310.0 4.45 0.0 0 0.0 0.3 0.0 0.0
274320.0 5.18 0.0 0 0.0 0.3 0.0 0.0
274330.0 3.65 0.0 0 0.0 0.3 0.0 0.0
274340.0 4.19 0.0 0 0.0 0.3 0.0 0.0
274350.0 5.11 0.0 0 0.0 0.3 0.0 0.0
274360.0 4.66 0.0 0 0.0 0.3 0.0 0.0
274370.0 4.4 0.0 0 0.0 0.3 0.0 0.0
274380.0 4.34 0.0 0 0.0 0.3 0.0 0.0
274390.0 4.54 0.0 0 0.0 0.3 0.0 0.0
274400.0 4.27 0.0 0 0.0 0.3 0.0 0.0
274410.0 4.4 0.0 0 0.0 0.3 0.0 0.0
274420.0 4.11 0.0 0 0.0 0.3 0.0 0.0
274430.0 4.79 0.0 0 0.0 0.3 0.0 0.0
274440.0 4.08 0.0 0 0.0 0.3 0.0 0.0
274450.0 3.58 0.0 0 0.0 0.3 0.0 0.0
274460.0 3.28 0.0 0 0.0 0.3 0.0 0.0
274470.0 3.52 0.0 0 0.0 0.3 0.0 0.0
274480.0 4.79 0.0 0 0.0 0.3 0.0 0.0
274490.0 4.51 0.0 0 0.0 0.3 0.0 0.0
274500.0 4.37 0.0 0 0.0 0.3 0.0 0.0
274510.0 4.09 0.0 0 0.0 0.3 0.0 0.0
274520.0 4.2 0.0 0 0.0 0.3 0.0 0.0
274530.0 4.36 0.0 0 0.0 0.3 0.0 0.0
274540.0 5.1 0.0 0 0.0 0.3 0.0 0.0
274550.0 4.54 0.0 0 0.0 0.3 0.0 0.0
274560.0 3.62 0.0 0 0.0 0.3 0.0 0.0
274570.0 3.43 0.0 0 0.0 0.3 0.0 0.0
274580.0 3.68 0.0 0 0.0 0.3 0.0 0.0
274590.0 3.58 0.0 0 0.0 0.3 0.0 0.0
274600.0 4.19 0.0 0 0.0 0.3 0.0 0.0
274610.0 4.02 0.0 0 0.0 0.3 0.0 0.0
274620.0 4.05 0.0 0 0.0 0.3 0.0 0.0
274630.0 4.35 0.0 0 0.0 0.3 0.0 0.0
274640.0 4.47 0.0 0 0.0 0.3 0.0 0.0
274650.0 4.46 0.0 0 0.0 0.3 0.0 0.0
274660.0 4.82 0.0 0 0.0 0.3 0.0 0.0
274670.0 5.31 0.0 0 0.0 0.3 0.0 0.0
274680.0 4.88 0.0 0 0.0 0.3 0.0 0.0
274690.0 4.62 0.0 0 0.0 0.3 0.0 0.0
274700.0 5.13 0.0 0 0.0 0.3 0.0 0.0
274710.0 4.62 0.0 0 0.0 0.3 0.0 0.0
274720.0 4.07 0.0 0 0.0 0.3 0.0 0.0
274730.0 5.0 0.0 0 0.0 0.3 0.0 0.0
274740.0 4.58 0.0 0 0.0 0.3 0.0 0.0
274750.0 4.37 0.0 0 0.0 0.3 0.0 0.0
274760.0 4.7 0.0 0 0.0 0.3 0.0 0.0
274770.0 4.32 0.0 0 0.0 0.3 0.0 0.0
274780.0 4.42 0.0 0 0.0 0.3 0.0 0.0
274790.0 4.54 0.0 0 0.0 0.3 0.0 0.0
274800.0 4.24 0.0 0 0.0 0.3 0.0 0.0
274810.0 3.83 0.0 0 0.0 0.3 0.0 0.0
274820.0 3.53 0.0 0 0.0 0.3 0.0 0.0
274830.0 3.37 0.0 0 0.0 0.3 0.0 0.0
274840.0 3.05 0.0 0 0.0 0.3 0.0 0.0
274850.0 2.72 0.0 0 0.0 0.3 0.0 0.0
274860.0 2.78 0.0 0 0.0 0.3 0.0 0.0
274870.0 3.8 0.0 0 0.0 0.3 0.0 0.0
274880.0 4.1 0.0 0 0.0 0.3 0.0 0.0
274890.0 3.44 0.0 0 0.0 0.3 0.0 0.0
274900.0 3.37 0.0 0 0.0 0.3 0.0 0.0
274910.0 3.09 0.0 0 0.0 0.3 0.0 0.0
274920.0 3.24 0.0 0 0.0 0.3 0.0 0.0
274930.0 3.76 0.0 0 0.0 0.3 0.0 0.0
274940.0 2.89 0.0 0 0.0 0.3 0.0 0.0
274950.0 2.74 0.0 0 0.0 0.3 0.0 0.0
274960.0 3.0 0.0 0 0.0 0.3 0.0 0.0
274970.0 3.55 0.0 0 0.0 0.3 0.0 0.0
274980.0 4.48 0.0 0 0.0 0.3 0.0 0.0
274990.0 4.27 0.0 0 0.0 0.3 0.0 0.0
275000.0 3.71 0.0 0 0.0 0.3 0.0 0.0
275010.0 3.4 0.0 0 0.0 0.3 0.0 0.0
275020.0 3.68 0.0 0 0.0 0.3 0.0 0.0
275030.0 3.64 0.0 0 0.0 0.3 0.0 0.0
275040.0 4.34 0.0 0 0.0 0.3 0.0 0.0
275050.0 5.13 0.0 0 0.0 0.3 0.0 0.0
275060.0 5.02 0.0 0 0.0 0.3 0.0 0.0
275070.0 5.32 0.0 0 0.0 0.3 0.0 0.0
275080.0 5.71 0.0 0 0.0 0.3 0.0 0.0
275090.0 5.54 0.0 0 0.0 0.3 0.0 0.0
275100.0 5.22 0.0 0 0.0 0.3 0.0 0.0
275110.0 5.11 0.0 0 0.0 0.3 0.0 0.0
275120.0 5.62 0.0 0 0.0 0.3 0.0 0.0
275130.0 5.4 0.0 0 0.0 0.3 0.0 0.0
275140.0 5.15 0.0 0 0.0 0.3 0.0 0.0
275150.0 4.77 0.0 0 0.0 0.3 0.0 0.0
275160.0 3.65 0.0 0 0.0 0.3 0.0 0.0
275170.0 3.51 0.0 0 0.0 0.3 0.0 0.0
275180.0 3.76 0.0 0 0.0 0.3 0.0 0.0
275190.0 3.38 0.0 0 0.0 0.3 0.0 0.0
275200.0 3.53 0.0 0 0.0 0.3 0.0 0.0
275210.0 3.02 0.0 0 0.0 0.3 0.0 0.0
275220.0 3.13 0.0 0 0.0 0.3 0.0 0.0
275230.0 4.05 0.0 0 0.0 0.3 0.0 0.0
275240.0 3.54 0.0 0 0.0 0.3 0.0 0.0
275250.0 3.4 0.0 0 0.0 0.3 0.0 0.0
275260.0 4.26 0.0 0 0.0 0.3 0.0 0.0
275270.0 4.08 0.0 0 0.0 0.3 0.0 0.0
275280.0 4.46 0.0 0 0.0 0.3 0.0 0.0
275290.0 4.7 0.0 0 0.0 0.3 0.0 0.0
275300.0 4.3 0.0 0 0.0 0.3 0.0 0.0
275650.0 4.26 0.0 0 0.0 0.3 0.0 0.0
275660.0 4.38 0.0 0 0.0 0.3 0.0 0.0
275670.0 3.72 0.0 0 0.0 0.3 0.0 0.0
275680.0 3.37 0.0 0 0.0 0.3 0.0 0.0
275690.0 3.71 0.0 0 0.0 0.3 0.0 0.0
275700.0 3.81 0.0 0 0.0 0.3 0.0 0.0
275710.0 4.82 0.0 0 0.0 0.3 0.0 0.0
275720.0 4.77 0.0 0 0.0 0.3 0.0 0.0
275900.0 3.18 0.0 0 0.0 0.3 0.0 0.0
275910.0 3.44 0.0 0 0.0 0.3 0.0 0.0
275920.0 4.54 0.0 0 0.0 0.3 0.0 0.0
275930.0 4.67 0.0 0 0.0 0.3 0.0 0.0
275940.0 4.18 0.0 0 0.0 0.3 0.0 0.0
275950.0 3.78 0.0 0 0.0 0.3 0.0 0.0
275960.0 4.33 0.0 0 0.0 0.3 0.0 0.0
275970.0 4.54 0.0 0 0.0 0.3 0.0 0.0
275980.0 5.47 0.0 0 0.0 0.3 0.0 0.0
275990.0 5.56 0.0 0 0.0 0.3 0.0 0.0
276000.0 5.65 0.0 0 0.0 0.3 0.0 0.0
276010.0 5.68 0.0 0 0.0 0.3 0.0 0.0
276020.0 5.29 0.0 0 0.0 0.3 0.0 0.0
276030.0 5.07 0.0 0 0.0 0.3 0.0 0.0
276040.0 5.5 0.0 0 0.0 0.3 0.0 0.0
276050.0 5.2 0.0 0 0.0 0.3 0.0 0.0
276060.0 5.07 0.0 0 0.0 0.3 0.0 0.0
276070.0 5.28 0.0 0 0.0 0.3 0.0 0.0
276080.0 5.47 0.0 0 0.0 0.3 0.0 0.0
276090.0 5.76 0.0 0 0.0 0.3 0.0 0.0
276100.0 5.28 0.0 0 0.0 0.3 0.0 0.0
276110.0 4.89 0.0 0 0.0 0.3 0.0 0.0
276120.0 4.32 0.0 0 0.0 0.3 0.0 0.0
276130.0 4.89 0.0 0 0.0 0.3 0.0 0.0
276140.0 4.45 0.0 0 0.0 0.3 0.0 0.0
276150.0 4.72 0.0 0 0.0 0.3 0.0 0.0
276160.0 4.46 0.0 0 0.0 0.3 0.0 0.0
276170.0 4.11 0.0 0 0.0 0.3 0.0 0.0
276180.0 4.27 0.0 0 0.0 0.3 0.0 0.0
276190.0 3.67 0.0 0 0.0 0.3 0.0 0.0
276200.0 3.57 0.0 0 0.0 0.3 0.0 0.0
276210.0 3.16 0.0 0 0.0 0.3 0.0 0.0
276220.0 3.2 0.0 0 0.0 0.3 0.0 0.0
276230.0 3.28 0.0 0 0.0 0.3 0.0 0.0
276240.0 3.64 0.0 0 0.0 0.3 0.0 0.0
276250.0 3.59 0.0 0 0.0 0.3 0.0 0.0
276260.0 3.36 0.0 0 0.0 0.3 0.0 0.0
276270.0 3.57 0.0 0 0.0 0.3 0.0 0.0
276280.0 3.56 0.0 0 0.0 0.3 0.0 0.0
276290.0 3.53 0.0 0 0.0 0.3 0.0 0.0
276300.0 3.41 0.0 0 0.0 0.3 0.0 0.0
276310.0 3.93 0.0 0 0.0 0.3 0.0 0.0
276320.0 3.83 0.0 0 0.0 0.3 0.0 0.0
276330.0 3.63 0.0 0 0.0 0.3 0.0 0.0
276340.0 3.61 0.0 0 0.0 0.3 0.0 0.0
276350.0 3.54 0.0 0 0.0 0.3 0.0 0.0
276360.0 4.02 0.0 0 0.0 0.3 0.0 0.0
276370.0 4.06 0.0 0 0.0 0.3 0.0 0.0
276380.0 4.64 0.0 0 0.0 0.3 0.0 0.0
276390.0 4.5 0.0 0 0.0 0.3 0.0 0.0
276400.0 3.73 0.0 0 0.0 0.3 0.0 0.0
276410.0 3.64 0.0 0 0.0 0.3 0.0 0.0
276420.0 4.16 0.0 0 0.0 0.3 0.0 0.0
276430.0 3.99 0.0 0 0.0 0.3 0.0 0.0
276440.0 4.25 0.0 0 0.0 0.3 0.0 0.0
276450.0 4.47 0.0 0 0.0 0.3 0.0 0.0
276460.0 4.28 0.0 0 0.0 0.3 0.0 0.0
276470.0 4.53 0.0 0 0.0 0.3 0.0 0.0
276480.0 5.06 0.0 0 0.0 0.3 0.0 0.0
276490.0 4.93 0.0 0 0.0 0.3 0.0 0.0
276500.0 4.25 0.0 0 0.0 0.3 0.0 0.0
276510.0 3.84 0.0 0 0.0 0.3 0.0 0.0
276520.0 3.66 0.0 0 0.0 0.3 0.0 0.0
276530.0 4.28 0.0 0 0.0 0.3 0.0 0.0
276540.0 5.12 0.0 0 0.0 0.3 0.0 0.0
276550.0 3.94 0.0 0 0.0 0.3 0.0 0.0
276560.0 3.58 0.0 0 0.0 0.3 0.0 0.0
276570.0 2.8 0.0 0 0.0 0.3 0.0 0.0
276580.0 2.18 0.0 0 0.0 0.3 0.0 0.0
276590.0 2.03 0.0 0 0.0 0.3 0.0 0.0
276600.0 2.85 0.0 0 0.0 0.3 0.0 0.0
276610.0 3.65 0.0 0 0.0 0.3 0.0 0.0
276620.0 3.84 0.0 0 0.0 0.3 0.0 0.0
281590.0 4.11 0.0 0 0.0 0.3 0.0 0.0
281600.0 4.68 0.0 0 0.0 0.3 0.0 0.0
281610.0 4.93 0.0 0 0.0 0.3 0.0 0.0
281620.0 5.24 0.0 0 0.0 0.3 0.0 0.0
281630.0 4.7 0.0 0 0.0 0.3 0.0 0.0
281640.0 4.12 0.0 0 0.0 0.3 0.0 0.0
281650.0 3.61 0.0 0 0.0 0.3 0.0 0.0
281660.0 3.58 0.0 0 0.0 0.3 0.0 0.0
281670.0 3.39 0.0 0 0.0 0.3 0.0 0.0
281680.0 3.97 0.0 0 0.0 0.3 0.0 0.0
281690.0 4.43 0.0 0 0.0 0.3 0.0 0.0
281700.0 4.21 0.0 0 0.0 0.3 0.0 0.0
281710.0 4.69 0.0 0 0.0 0.3 0.0 0.0
281720.0 4.66 0.0 0 0.0 0.3 0.0 0.0
281730.0 4.35 0.0 0 0.0 0.3 0.0 0.0
281740.0 3.95 0.0 0 0.0 0.3 0.0 0.0
281750.0 3.97 0.0 0 0.0 0.3 0.0 0.0
281760.0 3.79 0.0 0 0.0 0.3 0.0 0.0
281770.0 3.69 0.0 0 0.0 0.3 0.0 0.0
281780.0 3.36 0.0 0 0.0 0.3 0.0 0.0
281790.0 3.36 0.0 0 0.0 0.3 0.0 0.0
281800.0 3.16 0.0 0 0.0 0.3 0.0 0.0
281810.0 2.66 0.0 0 0.0 0.3 0.0 0.0
281820.0 2.3 0.0 0 0.0 0.3 0.0 0.0
281830.0 2.59 0.0 0 0.0 0.3 0.0 0.0
281840.0 2.79 0.0 0 0.0 0.3 0.0 0.0
281850.0 3.64 0.0 0 0.0 0.3 0.0 0.0
281860.0 3.93 0.0 0 0.0 0.3 0.0 0.0
281870.0 3.75 0.0 0 0.0 0.3 0.0 0.0
281880.0 3.65 0.0 0 0.0 0.3 0.0 0.0
281890.0 3.21 0.0 0 0.0 0.3 0.0 0.0
281900.0 3.66 0.0 0 0.0 0.3 0.0 0.0
281910.0 4.8 0.0 0 0.0 0.3 0.0 0.0
281920.0 4.12 0.0 0 0.0 0.3 0.0 0.0
281930.0 3.93 0.0 0 0.0 0.3 0.0 0.0
281940.0 3.82 0.0 0 0.0 0.3 0.0 0.0
281950.0 3.58 0.0 0 0.0 0.3 0.0 0.0
281960.0 4.57 0.0 0 0.0 0.3 0.0 0.0
281970.0 4.13 0.0 0 0.0 0.3 0.0 0.0
281980.0 3.69 0.0 0 0.0 0.3 0.0 0.0
281990.0 4.01 0.0 0 0.0 0.3 0.0 0.0
282000.0 4.2 0.0 0 0.0 0.3 0.0 0.0
282010.0 3.87 0.0 0 0.0 0.3 0.0 0.0
282020.0 4.36 0.0 0 0.0 0.3 0.0 0.0
282030.0 4.18 0.0 0 0.0 0.3 0.0 0.0
282040.0 3.86 0.0 0 0.0 0.3 0.0 0.0
282050.0 4.18 0.0 0 0.0 0.3 0.0 0.0
282060.0 4.3 0.0 0 0.0 0.3 0.0 0.0
282070.0 3.96 0.0 0 0.0 0.3 0.0 0.0
282130.0 3.74 0.0 0 0.0 0.3 0.0 0.0
282140.0 3.41 0.0 0 0.0 0.3 0.0 0.0
282210.0 3.76 0.0 0 0.0 0.3 0.0 0.0
3818680.0 7.75 0.0 0 0.0 0.3 0.0 0.0
3818740.0 7.75 0.0 0 0.0 0.3 0.0 0.0
3886270.0 5.88 0.0 0 0.0 0.3 0.0 0.0
3886280.0 6.55 0.0 0 0.0 0.3 0.0 0.0
3886290.0 6.56 0.0 0 0.0 0.3 0.0 0.0
3886300.0 5.84 0.0 0 0.0 0.3 0.0 0.0
3886310.0 7.51 0.0 0 0.0 0.3 0.0 0.0
3886320.0 7.39 0.0 0 0.0 0.3 0.0 0.0
3886330.0 6.26 0.0 0 0.0 0.3 0.0 0.0
3886340.0 5.63 0.0 0 0.0 0.3 0.0 0.0
3886350.0 5.97 0.0 0 0.0 0.3 0.0 0.0
3886360.0 6.25 0.0 0 0.0 0.3 0.0 0.0
3886370.0 5.45 0.0 0 0.0 0.3 0.0 0.0
3886380.0 5.56 0.0 0 0.0 0.3 0.0 0.0
3886390.0 4.94 0.0 0 0.0 0.3 0.0 0.0
3886400.0 4.7 0.0 0 0.0 0.3 0.0 0.0
3886410.0 3.56 0.0 0 0.0 0.3 0.0 0.0
3886420.0 4.86 0.0 0 0.0 0.3 0.0 0.0
3886430.0 4.25 0.0 0 0.0 0.3 0.0 0.0
3886440.0 3.94 0.0 0 0.0 0.3 0.0 0.0
3886450.0 6.03 0.0 0 0.0 0.3 0.0 0.0
3886460.0 5.5 0.0 0 0.0 0.3 0.0 0.0
3886470.0 4.67 0.0 0 0.0 0.3 0.0 0.0
3886480.0 5.33 0.0 0 0.0 0.3 0.0 0.0
3886490.0 5.13 0.0 0 0.0 0.3 0.0 0.0
3886500.0 6.26 0.0 0 0.0 0.3 0.0 0.0
3886510.0 6.36 0.0 0 0.0 0.3 0.0 0.0
3886520.0 5.23 0.0 0 0.0 0.3 0.0 0.0
3886530.0 4.99 0.0 0 0.0 0.3 0.0 0.0
3886540.0 4.13 0.0 0 0.0 0.3 0.0 0.0
3886550.0 4.21 0.0 0 0.0 0.3 0.0 0.0
3886560.0 3.48 0.0 0 0.0 0.3 0.0 0.0
3886570.0 4.33 0.0 0 0.0 0.3 0.0 0.0
3886580.0 5.86 0.0 0 0.0 0.3 0.0 0.0
3886590.0 6.24 0.0 0 0.0 0.3 0.0 0.0
3886600.0 5.99 0.0 0 0.0 0.3 0.0 0.0
3886610.0 5.45 0.0 0 0.0 0.3 0.0 0.0
3886620.0 6.03 0.0 0 0.0 0.3 0.0 0.0
3886630.0 5.41 0.0 0 0.0 0.3 0.0 0.0
3886640.0 6.78 0.0 0 0.0 0.3 0.0 0.0
3886650.0 7.06 0.0 0 0.0 0.3 0.0 0.0
3886660.0 7.2 0.0 0 0.0 0.3 0.0 0.0
3886670.0 6.63 0.0 0 0.0 0.3 0.0 0.0
3886680.0 5.68 0.0 0 0.0 0.3 0.0 0.0
3886690.0 5.52 0.0 0 0.0 0.3 0.0 0.0
3886700.0 5.66 0.0 0 0.0 0.3 0.0 0.0
3886710.0 6.48 0.0 0 0.0 0.3 0.0 0.0
3886720.0 6.45 0.0 0 0.0 0.3 0.0 0.0
3886730.0 5.81 0.0 0 0.0 0.3 0.0 0.0
3886740.0 6.7 0.0 0 0.0 0.3 0.0 0.0
3886750.0 5.57 0.0 0 0.0 0.3 0.0 0.0
3886760.0 4.7 0.0 0 0.0 0.3 0.0 0.0
3886770.0 3.79 0.0 0 0.0 0.3 0.0 0.0
3886780.0 3.12 0.0 0 0.0 0.3 0.0 0.0
3886790.0 4.21 0.0 0 0.0 0.3 0.0 0.0
3886800.0 6.49 0.0 0 0.0 0.3 0.0 0.0
3886810.0 6.08 0.0 0 0.0 0.3 0.0 0.0
3886820.0 5.62 0.0 0 0.0 0.3 0.0 0.0
3886830.0 5.92 0.0 0 0.0 0.3 0.0 0.0
3886840.0 5.52 0.0 0 0.0 0.3 0.0 0.0
3886850.0 4.88 0.0 0 0.0 0.3 0.0 0.0
3886860.0 6.85 0.0 0 0.0 0.3 0.0 0.0
3886870.0 6.52 0.0 0 0.0 0.3 0.0 0.0
3886880.0 6.18 0.0 0 0.0 0.3 0.0 0.0
3886890.0 6.55 0.0 0 0.0 0.3 0.0 0.0
3886900.0 5.74 0.0 0 0.0 0.3 0.0 0.0
3886910.0 4.85 0.0 0 0.0 0.3 0.0 0.0
3886920.0 5.35 0.0 0 0.0 0.3 0.0 0.0
3886930.0 4.14 0.0 0 0.0 0.3 0.0 0.0
3886940.0 3.6 0.0 0 0.0 0.3 0.0 0.0
3886950.0 4.19 0.0 0 0.0 0.3 0.0 0.0
3886960.0 3.55 0.0 0 0.0 0.3 0.0 0.0
3886970.0 3.42 0.0 0 0.0 0.3 0.0 0.0
3886980.0 3.98 0.0 0 0.0 0.3 0.0 0.0
3886990.0 4.89 0.0 0 0.0 0.3 0.0 0.0
3887000.0 6.58 0.0 0 0.0 0.3 0.0 0.0
3887010.0 6.1 0.0 0 0.0 0.3 0.0 0.0
3887020.0 4.19 0.0 0 0.0 0.3 0.0 0.0
3887030.0 5.3 0.0 0 0.0 0.3 0.0 0.0
3887040.0 5.26 0.0 0 0.0 0.3 0.0 0.0
3887050.0 5.75 0.0 0 0.0 0.3 0.0 0.0
3887060.0 4.53 0.0 0 0.0 0.3 0.0 0.0
3887070.0 3.79 0.0 0 0.0 0.3 0.0 0.0
3887080.0 3.58 0.0 0 0.0 0.3 0.0 0.0
3887090.0 5.16 0.0 0 0.0 0.3 0.0 0.0
3887100.0 5.61 0.0 0 0.0 0.3 0.0 0.0
3887110.0 5.09 0.0 0 0.0 0.3 0.0 0.0
3887120.0 4.36 0.0 0 0.0 0.3 0.0 0.0
3887130.0 6.91 0.0 0 0.0 0.3 0.0 0.0
3887140.0 6.21 0.0 0 0.0 0.3 0.0 0.0
3887150.0 6.04 0.0 0 0.0 0.3 0.0 0.0
3887160.0 6.4 0.0 0 0.0 0.3 0.0 0.0
3887170.0 6.81 0.0 0 0.0 0.3 0.0 0.0
3887180.0 6.2 0.0 0 0.0 0.3 0.0 0.0
3887190.0 8.46 0.0 0 0.0 0.3 0.0 0.0
3887200.0 6.85 0.0 0 0.0 0.3 0.0 0.0
3887210.0 6.01 0.0 0 0.0 0.3 0.0 0.0
3887220.0 6.71 0.0 0 0.0 0.3 0.0 0.0
3887230.0 5.94 0.0 0 0.0 0.3 0.0 0.0
3887240.0 5.84 0.0 0 0.0 0.3 0.0 0.0
3887250.0 7.29 0.0 0 0.0 0.3 0.0 0.0
3887260.0 7.45 0.0 0 0.0 0.3 0.0 0.0
3887270.0 6.55 0.0 0 0.0 0.3 0.0 0.0
3887280.0 5.98 0.0 0 0.0 0.3 0.0 0.0
3887290.0 5.96 0.0 0 0.0 0.3 0.0 0.0
3887300.0 4.61 0.0 0 0.0 0.3 0.0 0.0
3887310.0 4.7 0.0 0 0.0 0.3 0.0 0.0
3887320.0 6.8 0.0 0 0.0 0.3 0.0 0.0
3887330.0 8.43 0.0 0 0.0 0.3 0.0 0.0
3887340.0 8.5 0.0 0 0.0 0.3 0.0 0.0
3887350.0 8.99 0.0 0 0.0 0.3 0.0 0.0
3887360.0 7.46 0.0 0 0.0 0.3 0.0 0.0
3887370.0 7.83 0.0 0 0.0 0.3 0.0 0.0
3887380.0 7.55 0.0 0 0.0 0.3 0.0 0.0
3887390.0 7.2 0.0 0 0.0 0.3 0.0 0.0
3887400.0 6.94 0.0 0 0.0 0.3 0.0 0.0
3887410.0 5.47 0.0 0 0.0 0.3 0.0 0.0
3887420.0 5.67 0.0 0 0.0 0.3 0.0 0.0
3887430.0 5.23 0.0 0 0.0 0.3 0.0 0.0
3887440.0 6.38 0.0 0 0.0 0.3 0.0 0.0
3887450.0 5.84 0.0 0 0.0 0.3 0.0 0.0
3887460.0 4.92 0.0 0 0.0 0.3 0.0 0.0
3887470.0 4.57 0.0 0 0.0 0.3 0.0 0.0
3887480.0 3.02 0.0 0 0.0 0.3 0.0 0.0
3887490.0 4.58 0.0 0 0.0 0.3 0.0 0.0
3887500.0 7.24 0.0 0 0.0 0.3 0.0 0.0
3887510.0 6.85 0.0 0 0.0 0.3 0.0 0.0
3887520.0 6.42 0.0 0 0.0 0.3 0.0 0.0
3887530.0 5.06 0.0 0 0.0 0.3 0.0 0.0
3887540.0 5.31 0.0 0 0.0 0.3 0.0 0.0
3887550.0 6.08 0.0 0 0.0 0.3 0.0 0.0
3887560.0 6.32 0.0 0 0.0 0.3 0.0 0.0
3887570.0 6.89 0.0 0 0.0 0.3 0.0 0.0
3887580.0 5.84 0.0 0 0.0 0.3 0.0 0.0
3887590.0 5.73 0.0 0 0.0 0.3 0.0 0.0
3887600.0 5.41 0.0 0 0.0 0.3 0.0 0.0
3887610.0 5.76 0.0 0 0.0 0.3 0.0 0.0
3887620.0 5.74 0.0 0 0.0 0.3 0.0 0.0
3887630.0 6.1 0.0 0 0.0 0.3 0.0 0.0
3887640.0 4.96 0.0 0 0.0 0.3 0.0 0.0
3887650.0 4.14 0.0 0 0.0 0.3 0.0 0.0
3887660.0 5.94 0.0 0 0.0 0.3 0.0 0.0
3887670.0 6.26 0.0 0 0.0 0.3 0.0 0.0
3887680.0 6.33 0.0 0 0.0 0.3 0.0 0.0
3887690.0 6.14 0.0 0 0.0 0.3 0.0 0.0
3887700.0 4.74 0.0 0 0.0 0.3 0.0 0.0
3887710.0 4.22 0.0 0 0.0 0.3 0.0 0.0
3887720.0 5.87 0.0 0 0.0 0.3 0.0 0.0
3887730.0 5.46 0.0 0 0.0 0.3 0.0 0.0
3887740.0 5.05 0.0 0 0.0 0.3 0.0 0.0
3887750.0 5.24 0.0 0 0.0 0.3 0.0 0.0
3887760.0 4.18 0.0 0 0.0 0.3 0.0 0.0
3887770.0 4.71 0.0 0 0.0 0.3 0.0 0.0
3887780.0 5.64 0.0 0 0.0 0.3 0.0 0.0
3887790.0 6.96 0.0 0 0.0 0.3 0.0 0.0
3887800.0 7.95 0.0 0 0.0 0.3 0.0 0.0
3887810.0 6.99 0.0 0 0.0 0.3 0.0 0.0
3887820.0 5.71 0.0 0 0.0 0.3 0.0 0.0
3887830.0 7.03 0.0 0 0.0 0.3 0.0 0.0
3887840.0 6.22 0.0 0 0.0 0.3 0.0 0.0
3887850.0 4.73 0.0 0 0.0 0.3 0.0 0.0
3887860.0 5.84 0.0 0 0.0 0.3 0.0 0.0
3887870.0 5.64 0.0 0 0.0 0.3 0.0 0.0
3887880.0 4.41 0.0 0 0.0 0.3 0.0 0.0
3887890.0 4.15 0.0 0 0.0 0.3 0.0 0.0
3887900.0 4.28 0.0 0 0.0 0.3 0.0 0.0
3887910.0 5.3 0.0 0 0.0 0.3 0.0 0.0
3887920.0 5.4 0.0 0 0.0 0.3 0.0 0.0
3887930.0 4.32 0.0 0 0.0 0.3 0.0 0.0
3887940.0 4.58 0.0 0 0.0 0.3 0.0 0.0
3887950.0 4.22 0.0 0 0.0 0.3 0.0 0.0
3887960.0 4.72 0.0 0 0.0 0.3 0.0 0.0
3887970.0 5.49 0.0 0 0.0 0.3 0.0 0.0
3887980.0 5.68 0.0 0 0.0 0.3 0.0 0.0
3887990.0 5.52 0.0 0 0.0 0.3 0.0 0.0
3888000.0 4.42 0.0 0 0.0 0.3 0.0 0.0
3888010.0 4.45 0.0 0 0.0 0.3 0.0 0.0
3888020.0 4.7 0.0 0 0.0 0.3 0.0 0.0
3888030.0 5.58 0.0 0 0.0 0.3 0.0 0.0
3888040.0 6.58 0.0 0 0.0 0.3 0.0 0.0
3888050.0 6.13 0.0 0 0.0 0.3 0.0 0.0
3888060.0 5.73 0.0 0 0.0 0.3 0.0 0.0
3888070.0 6.5 0.0 0 0.0 0.3 0.0 0.0
3888080.0 6.89 0.0 0 0.0 0.3 0.0 0.0
3888090.0 6.79 0.0 0 0.0 0.3 0.0 0.0
3888100.0 6.93 0.0 0 0.0 0.3 0.0 0.0
3888110.0 7.14 0.0 0 0.0 0.3 0.0 0.0
3888120.0 6.47 0.0 0 0.0 0.3 0.0 0.0
3888130.0 5.97 0.0 0 0.0 0.3 0.0 0.0
3888140.0 7.01 0.0 0 0.0 0.3 0.0 0.0
3888150.0 7.04 0.0 0 0.0 0.3 0.0 0.0
3888160.0 6.93 0.0 0 0.0 0.3 0.0 0.0
3888170.0 6.28 0.0 0 0.0 0.3 0.0 0.0
3888180.0 4.87 0.0 0 0.0 0.3 0.0 0.0
3888190.0 4.67 0.0 0 0.0 0.3 0.0 0.0
3888200.0 4.81 0.0 0 0.0 0.3 0.0 0.0
3888210.0 4.48 0.0 0 0.0 0.3 0.0 0.0
3888220.0 4.85 0.0 0 0.0 0.3 0.0 0.0
3888230.0 3.83 0.0 0 0.0 0.3 0.0 0.0
3888240.0 3.51 0.0 0 0.0 0.3 0.0 0.0
3888250.0 4.38 0.0 0 0.0 0.3 0.0 0.0
3888260.0 4.09 0.0 0 0.0 0.3 0.0 0.0
3888270.0 3.39 0.0 0 0.0 0.3 0.0 0.0
3888280.0 4.22 0.0 0 0.0 0.3 0.0 0.0
3888290.0 3.71 0.0 0 0.0 0.3 0.0 0.0
3888300.0 3.5 0.0 0 0.0 0.3 0.0 0.0
3888310.0 3.23 0.0 0 0.0 0.3 0.0 0.0
3888320.0 5.19 0.0 0 0.0 0.3 0.0 0.0
3888330.0 5.14 0.0 0 0.0 0.3 0.0 0.0
3888340.0 4.11 0.0 0 0.0 0.3 0.0 0.0
3888350.0 3.47 0.0 0 0.0 0.3 0.0 0.0
3888360.0 4.03 0.0 0 0.0 0.3 0.0 0.0
3888370.0 5.04 0.0 0 0.0 0.3 0.0 0.0
3888380.0 4.7 0.0 0 0.0 0.3 0.0 0.0
3888390.0 5.21 0.0 0 0.0 0.3 0.0 0.0
3888400.0 4.32 0.0 0 0.0 0.3 0.0 0.0
3888410.0 4.53 0.0 0 0.0 0.3 0.0 0.0
3888420.0 5.63 0.0 0 0.0 0.3 0.0 0.0
3888430.0 4.75 0.0 0 0.0 0.3 0.0 0.0
3888440.0 5.15 0.0 0 0.0 0.3 0.0 0.0
3888450.0 4.8 0.0 0 0.0 0.3 0.0 0.0
3888460.0 4.72 0.0 0 0.0 0.3 0.0 0.0
3888470.0 3.9 0.0 0 0.0 0.3 0.0 0.0
3888480.0 3.97 0.0 0 0.0 0.3 0.0 0.0
3888490.0 4.99 0.0 0 0.0 0.3 0.0 0.0
3888500.0 5.09 0.0 0 0.0 0.3 0.0 0.0
3888510.0 5.36 0.0 0 0.0 0.3 0.0 0.0
3888520.0 4.97 0.0 0 0.0 0.3 0.0 0.0
3888530.0 4.9 0.0 0 0.0 0.3 0.0 0.0
3888540.0 5.32 0.0 0 0.0 0.3 0.0 0.0
3888550.0 5.09 0.0 0 0.0 0.3 0.0 0.0
3888560.0 7.44 0.0 0 0.0 0.3 0.0 0.0
3888570.0 7.75 0.0 0 0.0 0.3 0.0 0.0
3888580.0 7.93 0.0 0 0.0 0.3 0.0 0.0
3888590.0 6.81 0.0 0 0.0 0.3 0.0 0.0
3888600.0 5.6 0.0 0 0.0 0.3 0.0 0.0
3888610.0 5.51 0.0 0 0.0 0.3 0.0 0.0
3888620.0 5.13 0.0 0 0.0 0.3 0.0 0.0
3888630.0 4.96 0.0 0 0.0 0.3 0.0 0.0
3888640.0 4.43 0.0 0 0.0 0.3 0.0 0.0
3888650.0 3.75 0.0 0 0.0 0.3 0.0 0.0
3888660.0 4.08 0.0 0 0.0 0.3 0.0 0.0
3888670.0 5.5 0.0 0 0.0 0.3 0.0 0.0
3888680.0 5.69 0.0 0 0.0 0.3 0.0 0.0
3888690.0 5.47 0.0 0 0.0 0.3 0.0 0.0
3888700.0 6.07 0.0 0 0.0 0.3 0.0 0.0
3888710.0 6.78 0.0 0 0.0 0.3 0.0 0.0
3888720.0 7.02 0.0 0 0.0 0.3 0.0 0.0
3888730.0 5.58 0.0 0 0.0 0.3 0.0 0.0
3888740.0 4.76 0.0 0 0.0 0.3 0.0 0.0
3888750.0 4.67 0.0 0 0.0 0.3 0.0 0.0
3888760.0 3.99 0.0 0 0.0 0.3 0.0 0.0
3888770.0 3.66 0.0 0 0.0 0.3 0.0 0.0
3888780.0 3.79 0.0 0 0.0 0.3 0.0 0.0
3888790.0 4.49 0.0 0 0.0 0.3 0.0 0.0
3888800.0 6.85 0.0 0 0.0 0.3 0.0 0.0
3888810.0 7.67 0.0 0 0.0 0.3 0.0 0.0
3888820.0 6.53 0.0 0 0.0 0.3 0.0 0.0
3888830.0 6.4 0.0 0 0.0 0.3 0.0 0.0
3888840.0 5.11 0.0 0 0.0 0.3 0.0 0.0
3888850.0 4.68 0.0 0 0.0 0.3 0.0 0.0
3888860.0 4.18 0.0 0 0.0 0.3 0.0 0.0
3888870.0 3.48 0.0 0 0.0 0.3 0.0 0.0
3888880.0 3.74 0.0 0 0.0 0.3 0.0 0.0
3888890.0 3.69 0.0 0 0.0 0.3 0.0 0.0
3888900.0 2.62 0.0 0 0.0 0.3 0.0 0.0
3888910.0 3.42 0.0 0 0.0 0.3 0.0 0.0
3888920.0 4.52 0.0 0 0.0 0.3 0.0 0.0
3888930.0 5.19 0.0 0 0.0 0.3 0.0 0.0
3888940.0 5.89 0.0 0 0.0 0.3 0.0 0.0
3888950.0 6.01 0.0 0 0.0 0.3 0.0 0.0
3888960.0 5.29 0.0 0 0.0 0.3 0.0 0.0
3888970.0 4.18 0.0 0 0.0 0.3 0.0 0.0
3888980.0 5.48 0.0 0 0.0 0.3 0.0 0.0
3888990.0 6.86 0.0 0 0.0 0.3 0.0 0.0
3889000.0 6.85 0.0 0 0.0 0.3 0.0 0.0
3889010.0 5.32 0.0 0 0.0 0.3 0.0 0.0
3889020.0 6.14 0.0 0 0.0 0.3 0.0 0.0
3889030.0 6.64 0.0 0 0.0 0.3 0.0 0.0
3889040.0 5.11 0.0 0 0.0 0.3 0.0 0.0
3889050.0 5.28 0.0 0 0.0 0.3 0.0 0.0
3889060.0 6.36 0.0 0 0.0 0.3 0.0 0.0
3889070.0 5.82 0.0 0 0.0 0.3 0.0 0.0
3889080.0 5.31 0.0 0 0.0 0.3 0.0 0.0
3889090.0 4.27 0.0 0 0.0 0.3 0.0 0.0
3889100.0 4.38 0.0 0 0.0 0.3 0.0 0.0
3889110.0 4.35 0.0 0 0.0 0.3 0.0 0.0
3889120.0 6.4 0.0 0 0.0 0.3 0.0 0.0
3889130.0 6.32 0.0 0 0.0 0.3 0.0 0.0
3889140.0 6.88 0.0 0 0.0 0.3 0.0 0.0
3889150.0 6.37 0.0 0 0.0 0.3 0.0 0.0
3889160.0 6.21 0.0 0 0.0 0.3 0.0 0.0
3889170.0 6.36 0.0 0 0.0 0.3 0.0 0.0
3889180.0 6.15 0.0 0 0.0 0.3 0.0 0.0
3889190.0 6.86 0.0 0 0.0 0.3 0.0 0.0
3889200.0 6.91 0.0 0 0.0 0.3 0.0 0.0
3889210.0 5.88 0.0 0 0.0 0.3 0.0 0.0
3889220.0 5.27 0.0 0 0.0 0.3 0.0 0.0
3889230.0 5.74 0.0 0 0.0 0.3 0.0 0.0
3889240.0 4.82 0.0 0 0.0 0.3 0.0 0.0
3889250.0 6.03 0.0 0 0.0 0.3 0.0 0.0
3889260.0 3.88 0.0 0 0.0 0.3 0.0 0.0
3889270.0 4.08 0.0 0 0.0 0.3 0.0 0.0
3889280.0 6.28 0.0 0 0.0 0.3 0.0 0.0
3889290.0 5.37 0.0 0 0.0 0.3 0.0 0.0
3889300.0 4.78 0.0 0 0.0 0.3 0.0 0.0
3889310.0 4.66 0.0 0 0.0 0.3 0.0 0.0
3889320.0 4.18 0.0 0 0.0 0.3 0.0 0.0
3889330.0 3.6 0.0 0 0.0 0.3 0.0 0.0
3889340.0 4.83 0.0 0 0.0 0.3 0.0 0.0
3889350.0 5.63 0.0 0 0.0 0.3 0.0 0.0
3889360.0 5.03 0.0 0 0.0 0.3 0.0 0.0
3889370.0 4.23 0.0 0 0.0 0.3 0.0 0.0
3889380.0 4.38 0.0 0 0.0 0.3 0.0 0.0
3889390.0 3.65 0.0 0 0.0 0.3 0.0 0.0
3889400.0 3.58 0.0 0 0.0 0.3 0.0 0.0
3889410.0 5.07 0.0 0 0.0 0.3 0.0 0.0
3889420.0 5.58 0.0 0 0.0 0.3 0.0 0.0
3889430.0 4.46 0.0 0 0.0 0.3 0.0 0.0
3889440.0 2.82 0.0 0 0.0 0.3 0.0 0.0
3889450.0 2.92 0.0 0 0.0 0.3 0.0 0.0
3889460.0 3.23 0.0 0 0.0 0.3 0.0 0.0
3889470.0 3.24 0.0 0 0.0 0.3 0.0 0.0
3889480.0 5.02 0.0 0 0.0 0.3 0.0 0.0
3889490.0 5.04 0.0 0 0.0 0.3 0.0 0.0
3889500.0 5.48 0.0 0 0.0 0.3 0.0 0.0
3889510.0 4.86 0.0 0 0.0 0.3 0.0 0.0
3889520.0 6.04 0.0 0 0.0 0.3 0.0 0.0
3889530.0 5.87 0.0 0 0.0 0.3 0.0 0.0
3889540.0 5.41 0.0 0 0.0 0.3 0.0 0.0
3889550.0 6.48 0.0 0 0.0 0.3 0.0 0.0
3889560.0 6.98 0.0 0 0.0 0.3 0.0 0.0
3889570.0 6.69 0.0 0 0.0 0.3 0.0 0.0
3889580.0 5.83 0.0 0 0.0 0.3 0.0 0.0
3889590.0 5.2 0.0 0 0.0 0.3 0.0 0.0
3889600.0 4.89 0.0 0 0.0 0.3 0.0 0.0
3889610.0 6.16 0.0 0 0.0 0.3 0.0 0.0
3889620.0 6.09 0.0 0 0.0 0.3 0.0 0.0
3889630.0 5.69 0.0 0 0.0 0.3 0.0 0.0
3889640.0 5.14 0.0 0 0.0 0.3 0.0 0.0
3889650.0 6.73 0.0 0 0.0 0.3 0.0 0.0
3889660.0 7.41 0.0 0 0.0 0.3 0.0 0.0
3889670.0 7.56 0.0 0 0.0 0.3 0.0 0.0
3889680.0 7.7 0.0 0 0.0 0.3 0.0 0.0
3889690.0 7.7 0.0 0 0.0 0.3 0.0 0.0
3889700.0 6.9 0.0 0 0.0 0.3 0.0 0.0
3889710.0 5.76 0.0 0 0.0 0.3 0.0 0.0
3889720.0 4.88 0.0 0 0.0 0.3 0.0 0.0
3889730.0 7.03 0.0 0 0.0 0.3 0.0 0.0
3889740.0 6.33 0.0 0 0.0 0.3 0.0 0.0
3889750.0 5.76 0.0 0 0.0 0.3 0.0 0.0
3889760.0 5.24 0.0 0 0.0 0.3 0.0 0.0
3889770.0 4.04 0.0 0 0.0 0.3 0.0 0.0
3889780.0 3.16 0.0 0 0.0 0.3 0.0 0.0
3889790.0 3.51 0.0 0 0.0 0.3 0.0 0.0
3889800.0 6.46 0.0 0 0.0 0.3 0.0 0.0
3889810.0 7.04 0.0 0 0.0 0.3 0.0 0.0
3889820.0 6.53 0.0 0 0.0 0.3 0.0 0.0
3889830.0 5.15 0.0 0 0.0 0.3 0.0 0.0
3889840.0 4.47 0.0 0 0.0 0.3 0.0 0.0
3889850.0 4.53 0.0 0 0.0 0.3 0.0 0.0
3889860.0 4.32 0.0 0 0.0 0.3 0.0 0.0
3889870.0 4.09 0.0 0 0.0 0.3 0.0 0.0
3889880.0 5.73 0.0 0 0.0 0.3 0.0 0.0
3889890.0 6.44 0.0 0 0.0 0.3 0.0 0.0
3889900.0 6.6 0.0 0 0.0 0.3 0.0 0.0
3889910.0 5.1 0.0 0 0.0 0.3 0.0 0.0
3889920.0 4.68 0.0 0 0.0 0.3 0.0 0.0
3889930.0 3.64 0.0 0 0.0 0.3 0.0 0.0
3889940.0 3.56 0.0 0 0.0 0.3 0.0 0.0
3889950.0 3.67 0.0 0 0.0 0.3 0.0 0.0
3889960.0 4.27 0.0 0 0.0 0.3 0.0 0.0
3889970.0 6.61 0.0 0 0.0 0.3 0.0 0.0
3889980.0 7.18 0.0 0 0.0 0.3 0.0 0.0
3889990.0 6.89 0.0 0 0.0 0.3 0.0 0.0
3890000.0 6.17 0.0 0 0.0 0.3 0.0 0.0
3890010.0 4.97 0.0 0 0.0 0.3 0.0 0.0
3890020.0 5.24 0.0 0 0.0 0.3 0.0 0.0
3890030.0 6.83 0.0 0 0.0 0.3 0.0 0.0
3890040.0 7.21 0.0 0 0.0 0.3 0.0 0.0
3890050.0 6.16 0.0 0 0.0 0.3 0.0 0.0
3890060.0 5.8 0.0 0 0.0 0.3 0.0 0.0
3890070.0 4.58 0.0 0 0.0 0.3 0.0 0.0
3890080.0 4.94 0.0 0 0.0 0.3 0.0 0.0
3890090.0 6.18 0.0 0 0.0 0.3 0.0 0.0
3890100.0 7.38 0.0 0 0.0 0.3 0.0 0.0
3890110.0 6.98 0.0 0 0.0 0.3 0.0 0.0
3890120.0 6.08 0.0 0 0.0 0.3 0.0 0.0
3890130.0 5.36 0.0 0 0.0 0.3 0.0 0.0
3890140.0 5.41 0.0 0 0.0 0.3 0.0 0.0
3890150.0 4.84 0.0 0 0.0 0.3 0.0 0.0
3890160.0 6.66 0.0 0 0.0 0.3 0.0 0.0
3890170.0 6.32 0.0 0 0.0 0.3 0.0 0.0
3890180.0 4.96 0.0 0 0.0 0.3 0.0 0.0
3890190.0 6.5 0.0 0 0.0 0.3 0.0 0.0
3890200.0 6.17 0.0 0 0.0 0.3 0.0 0.0
3890210.0 4.84 0.0 0 0.0 0.3 0.0 0.0
3890220.0 5.76 0.0 0 0.0 0.3 0.0 0.0
3890230.0 5.42 0.0 0 0.0 0.3 0.0 0.0
3890240.0 4.02 0.0 0 0.0 0.3 0.0 0.0
3890250.0 4.27 0.0 0 0.0 0.3 0.0 0.0
3890260.0 6.52 0.0 0 0.0 0.3 0.0 0.0
3890270.0 6.06 0.0 0 0.0 0.3 0.0 0.0
3890280.0 4.76 0.0 0 0.0 0.3 0.0 0.0
3890290.0 6.32 0.0 0 0.0 0.3 0.0 0.0
3890300.0 5.88 0.0 0 0.0 0.3 0.0 0.0
3890310.0 5.91 0.0 0 0.0 0.3 0.0 0.0
3890320.0 5.61 0.0 0 0.0 0.3 0.0 0.0
3890330.0 4.56 0.0 0 0.0 0.3 0.0 0.0
3890340.0 3.41 0.0 0 0.0 0.3 0.0 0.0
3890350.0 4.47 0.0 0 0.0 0.3 0.0 0.0
3890360.0 6.25 0.0 0 0.0 0.3 0.0 0.0
3890370.0 7.76 0.0 0 0.0 0.3 0.0 0.0
3890380.0 6.81 0.0 0 0.0 0.3 0.0 0.0
3890390.0 5.67 0.0 0 0.0 0.3 0.0 0.0
3890400.0 6.13 0.0 0 0.0 0.3 0.0 0.0
3890410.0 5.92 0.0 0 0.0 0.3 0.0 0.0
3890420.0 7.08 0.0 0 0.0 0.3 0.0 0.0
3890430.0 6.6 0.0 0 0.0 0.3 0.0 0.0
3890440.0 6.29 0.0 0 0.0 0.3 0.0 0.0
3890450.0 6.44 0.0 0 0.0 0.3 0.0 0.0
3890460.0 6.71 0.0 0 0.0 0.3 0.0 0.0
3890470.0 6.37 0.0 0 0.0 0.3 0.0 0.0
3890480.0 6.58 0.0 0 0.0 0.3 0.0 0.0
3890490.0 5.49 0.0 0 0.0 0.3 0.0 0.0
3890500.0 5.01 0.0 0 0.0 0.3 0.0 0.0
3890510.0 6.08 0.0 0 0.0 0.3 0.0 0.0
3890520.0 6.81 0.0 0 0.0 0.3 0.0 0.0
3890530.0 6.1 0.0 0 0.0 0.3 0.0 0.0
3890540.0 5.58 0.0 0 0.0 0.3 0.0 0.0
3890550.0 5.04 0.0 0 0.0 0.3 0.0 0.0
3890560.0 4.23 0.0 0 0.0 0.3 0.0 0.0
3890570.0 4.58 0.0 0 0.0 0.3 0.0 0.0
3890580.0 5.62 0.0 0 0.0 0.3 0.0 0.0
3890590.0 6.35 0.0 0 0.0 0.3 0.0 0.0
3890600.0 6.62 0.0 0 0.0 0.3 0.0 0.0
3890610.0 6.17 0.0 0 0.0 0.3 0.0 0.0
3890620.0 4.96 0.0 0 0.0 0.3 0.0 0.0
3890630.0 5.66 0.0 0 0.0 0.3 0.0 0.0
3890640.0 5.37 0.0 0 0.0 0.3 0.0 0.0
3890650.0 6.24 0.0 0 0.0 0.3 0.0 0.0
3890660.0 6.04 0.0 0 0.0 0.3 0.0 0.0
3890670.0 4.94 0.0 0 0.0 0.3 0.0 0.0
3890680.0 4.68 0.0 0 0.0 0.3 0.0 0.0
3890690.0 4.87 0.0 0 0.0 0.3 0.0 0.0
3890700.0 5.68 0.0 0 0.0 0.3 0.0 0.0
3890710.0 6.49 0.0 0 0.0 0.3 0.0 0.0
3890720.0 5.33 0.0 0 0.0 0.3 0.0 0.0
3890730.0 5.21 0.0 0 0.0 0.3 0.0 0.0
3890740.0 5.91 0.0 0 0.0 0.3 0.0 0.0
3890750.0 5.96 0.0 0 0.0 0.3 0.0 0.0
3890760.0 4.82 0.0 0 0.0 0.3 0.0 0.0
3890770.0 4.24 0.0 0 0.0 0.3 0.0 0.0
3890780.0 5.2 0.0 0 0.0 0.3 0.0 0.0
3890790.0 5.56 0.0 0 0.0 0.3 0.0 0.0
3890800.0 5.44 0.0 0 0.0 0.3 0.0 0.0
3890810.0 5.44 0.0 0 0.0 0.3 0.0 0.0
3890820.0 5.91 0.0 0 0.0 0.3 0.0 0.0
3890830.0 5.99 0.0 0 0.0 0.3 0.0 0.0
3890840.0 6.43 0.0 0 0.0 0.3 0.0 0.0
3890850.0 6.48 0.0 0 0.0 0.3 0.0 0.0
3890860.0 6.78 0.0 0 0.0 0.3 0.0 0.0
3890870.0 7.31 0.0 0 0.0 0.3 0.0 0.0
3890880.0 6.14 0.0 0 0.0 0.3 0.0 0.0
3890890.0 4.17 0.0 0 0.0 0.3 0.0 0.0
3890900.0 4.35 0.0 0 0.0 0.3 0.0 0.0
3890910.0 5.96 0.0 0 0.0 0.3 0.0 0.0
3890920.0 5.93 0.0 0 0.0 0.3 0.0 0.0
3890930.0 6.2 0.0 0 0.0 0.3 0.0 0.0
3890940.0 6.64 0.0 0 0.0 0.3 0.0 0.0
3890950.0 7.04 0.0 0 0.0 0.3 0.0 0.0
3890960.0 6.07 0.0 0 0.0 0.3 0.0 0.0
3890970.0 6.33 0.0 0 0.0 0.3 0.0 0.0
3890980.0 6.82 0.0 0 0.0 0.3 0.0 0.0
3890990.0 6.06 0.0 0 0.0 0.3 0.0 0.0
3891000.0 6.12 0.0 0 0.0 0.3 0.0 0.0
3891010.0 7.1 0.0 0 0.0 0.3 0.0 0.0
3891020.0 6.76 0.0 0 0.0 0.3 0.0 0.0
3891030.0 5.43 0.0 0 0.0 0.3 0.0 0.0
3891040.0 5.42 0.0 0 0.0 0.3 0.0 0.0
3891050.0 6.06 0.0 0 0.0 0.3 0.0 0.0
3891060.0 4.82 0.0 0 0.0 0.3 0.0 0.0
3891070.0 4.45 0.0 0 0.0 0.3 0.0 0.0
3891080.0 4.26 0.0 0 0.0 0.3 0.0 0.0
3891090.0 5.06 0.0 0 0.0 0.3 0.0 0.0
3891100.0 5.05 0.0 0 0.0 0.3 0.0 0.0
3891110.0 5.57 0.0 0 0.0 0.3 0.0 0.0
3891120.0 6.07 0.0 0 0.0 0.3 0.0 0.0
3891130.0 5.35 0.0 0 0.0 0.3 0.0 0.0
3891140.0 6.19 0.0 0 0.0 0.3 0.0 0.0
3891150.0 6.78 0.0 0 0.0 0.3 0.0 0.0
3891160.0 5.75 0.0 0 0.0 0.3 0.0 0.0
3891170.0 5.71 0.0 0 0.0 0.3 0.0 0.0
3891180.0 5.11 0.0 0 0.0 0.3 0.0 0.0
3891190.0 4.81 0.0 0 0.0 0.3 0.0 0.0
3891200.0 4.82 0.0 0 0.0 0.3 0.0 0.0
3891210.0 4.94 0.0 0 0.0 0.3 0.0 0.0
3891220.0 6.24 0.0 0 0.0 0.3 0.0 0.0
3891230.0 7.18 0.0 0 0.0 0.3 0.0 0.0
3891240.0 7.48 0.0 0 0.0 0.3 0.0 0.0
3891250.0 6.37 0.0 0 0.0 0.3 0.0 0.0
3891260.0 5.75 0.0 0 0.0 0.3 0.0 0.0
3891270.0 5.24 0.0 0 0.0 0.3 0.0 0.0
3891280.0 5.44 0.0 0 0.0 0.3 0.0 0.0
3891290.0 5.4 0.0 0 0.0 0.3 0.0 0.0
3891300.0 5.3 0.0 0 0.0 0.3 0.0 0.0
3891310.0 4.78 0.0 0 0.0 0.3 0.0 0.0
3891320.0 4.21 0.0 0 0.0 0.3 0.0 0.0
3891330.0 3.48 0.0 0 0.0 0.3 0.0 0.0
3891340.0 2.94 0.0 0 0.0 0.3 0.0 0.0
3891350.0 4.67 0.0 0 0.0 0.3 0.0 0.0
3891360.0 4.98 0.0 0 0.0 0.3 0.0 0.0
3891370.0 3.99 0.0 0 0.0 0.3 0.0 0.0
3891380.0 4.02 0.0 0 0.0 0.3 0.0 0.0
3891390.0 3.86 0.0 0 0.0 0.3 0.0 0.0
3891400.0 5.76 0.0 0 0.0 0.3 0.0 0.0
3891410.0 4.85 0.0 0 0.0 0.3 0.0 0.0
3891420.0 3.11 0.0 0 0.0 0.3 0.0 0.0
3891430.0 3.39 0.0 0 0.0 0.3 0.0 0.0
3891440.0 4.23 0.0 0 0.0 0.3 0.0 0.0
3891450.0 4.64 0.0 0 0.0 0.3 0.0 0.0
3891460.0 4.66 0.0 0 0.0 0.3 0.0 0.0
3891470.0 5.0 0.0 0 0.0 0.3 0.0 0.0
3891480.0 4.44 0.0 0 0.0 0.3 0.0 0.0
3891490.0 4.72 0.0 0 0.0 0.3 0.0 0.0
3891500.0 6.52 0.0 0 0.0 0.3 0.0 0.0
3891510.0 7.63 0.0 0 0.0 0.3 0.0 0.0
3891520.0 6.98 0.0 0 0.0 0.3 0.0 0.0
3891530.0 5.64 0.0 0 0.0 0.3 0.0 0.0
3891540.0 5.76 0.0 0 0.0 0.3 0.0 0.0
3891550.0 6.91 0.0 0 0.0 0.3 0.0 0.0
3891560.0 5.51 0.0 0 0.0 0.3 0.0 0.0
3891570.0 5.51 0.0 0 0.0 0.3 0.0 0.0
3891580.0 5.42 0.0 0 0.0 0.3 0.0 0.0
3891590.0 5.75 0.0 0 0.0 0.3 0.0 0.0
3891600.0 6.42 0.0 0 0.0 0.3 0.0 0.0
3891610.0 6.33 0.0 0 0.0 0.3 0.0 0.0
3891620.0 5.39 0.0 0 0.0 0.3 0.0 0.0
3891630.0 5.43 0.0 0 0.0 0.3 0.0 0.0
3891640.0 5.07 0.0 0 0.0 0.3 0.0 0.0
3891650.0 5.87 0.0 0 0.0 0.3 0.0 0.0
3891660.0 5.16 0.0 0 0.0 0.3 0.0 0.0
3891670.0 5.52 0.0 0 0.0 0.3 0.0 0.0
3891680.0 7.9 0.0 0 0.0 0.3 0.0 0.0
3891690.0 7.19 0.0 0 0.0 0.3 0.0 0.0
3891700.0 6.37 0.0 0 0.0 0.3 0.0 0.0
3891710.0 5.6 0.0 0 0.0 0.3 0.0 0.0
3891720.0 6.07 0.0 0 0.0 0.3 0.0 0.0
3891730.0 5.53 0.0 0 0.0 0.3 0.0 0.0
3891740.0 4.8 0.0 0 0.0 0.3 0.0 0.0
3891750.0 4.47 0.0 0 0.0 0.3 0.0 0.0
3891760.0 4.06 0.0 0 0.0 0.3 0.0 0.0
3891770.0 3.84 0.0 0 0.0 0.3 0.0 0.0
3891780.0 4.57 0.0 0 0.0 0.3 0.0 0.0
3891790.0 4.92 0.0 0 0.0 0.3 0.0 0.0
3891800.0 4.24 0.0 0 0.0 0.3 0.0 0.0
3891810.0 4.38 0.0 0 0.0 0.3 0.0 0.0
3891820.0 4.45 0.0 0 0.0 0.3 0.0 0.0
3891830.0 4.86 0.0 0 0.0 0.3 0.0 0.0
3891840.0 5.3 0.0 0 0.0 0.3 0.0 0.0
3891850.0 4.81 0.0 0 0.0 0.3 0.0 0.0
3891860.0 5.1 0.0 0 0.0 0.3 0.0 0.0
3891870.0 4.69 0.0 0 0.0 0.3 0.0 0.0
3891880.0 4.19 0.0 0 0.0 0.3 0.0 0.0
3891890.0 3.54 0.0 0 0.0 0.3 0.0 0.0
3891900.0 3.08 0.0 0 0.0 0.3 0.0 0.0
3891910.0 5.07 0.0 0 0.0 0.3 0.0 0.0
3891920.0 5.28 0.0 0 0.0 0.3 0.0 0.0
3891930.0 5.65 0.0 0 0.0 0.3 0.0 0.0
3891940.0 5.26 0.0 0 0.0 0.3 0.0 0.0
3891950.0 3.95 0.0 0 0.0 0.3 0.0 0.0
3891960.0 3.12 0.0 0 0.0 0.3 0.0 0.0
3891970.0 3.44 0.0 0 0.0 0.3 0.0 0.0
3891980.0 3.71 0.0 0 0.0 0.3 0.0 0.0
3891990.0 4.87 0.0 0 0.0 0.3 0.0 0.0
3892000.0 6.12 0.0 0 0.0 0.3 0.0 0.0
3892010.0 5.99 0.0 0 0.0 0.3 0.0 0.0
3892020.0 5.72 0.0 0 0.0 0.3 0.0 0.0
3892030.0 4.36 0.0 0 0.0 0.3 0.0 0.0
3892040.0 4.47 0.0 0 0.0 0.3 0.0 0.0
3892050.0 3.37 0.0 0 0.0 0.3 0.0 0.0
3892060.0 2.71 0.0 0 0.0 0.3 0.0 0.0
3892070.0 4.66 0.0 0 0.0 0.3 0.0 0.0
3892080.0 6.53 0.0 0 0.0 0.3 0.0 0.0
3892090.0 5.99 0.0 0 0.0 0.3 0.0 0.0
3892100.0 4.95 0.0 0 0.0 0.3 0.0 0.0
3892110.0 5.0 0.0 0 0.0 0.3 0.0 0.0
3892120.0 5.5 0.0 0 0.0 0.3 0.0 0.0
3892130.0 4.46 0.0 0 0.0 0.3 0.0 0.0
3892140.0 5.32 0.0 0 0.0 0.3 0.0 0.0
3892150.0 6.36 0.0 0 0.0 0.3 0.0 0.0
3892160.0 6.23 0.0 0 0.0 0.3 0.0 0.0
3892170.0 4.8 0.0 0 0.0 0.3 0.0 0.0
3892180.0 5.99 0.0 0 0.0 0.3 0.0 0.0
3892190.0 7.1 0.0 0 0.0 0.3 0.0 0.0
3892200.0 6.47 0.0 0 0.0 0.3 0.0 0.0
3892210.0 6.04 0.0 0 0.0 0.3 0.0 0.0
3892220.0 4.94 0.0 0 0.0 0.3 0.0 0.0
3892230.0 5.35 0.0 0 0.0 0.3 0.0 0.0
3892240.0 5.03 0.0 0 0.0 0.3 0.0 0.0
3892250.0 5.12 0.0 0 0.0 0.3 0.0 0.0
3892260.0 4.83 0.0 0 0.0 0.3 0.0 0.0
3892270.0 4.1 0.0 0 0.0 0.3 0.0 0.0
3892280.0 4.54 0.0 0 0.0 0.3 0.0 0.0
3892290.0 5.03 0.0 0 0.0 0.3 0.0 0.0
3892300.0 5.93 0.0 0 0.0 0.3 0.0 0.0
3892310.0 5.83 0.0 0 0.0 0.3 0.0 0.0
3892320.0 5.87 0.0 0 0.0 0.3 0.0 0.0
3892330.0 6.36 0.0 0 0.0 0.3 0.0 0.0
3892340.0 5.8 0.0 0 0.0 0.3 0.0 0.0
3892350.0 5.43 0.0 0 0.0 0.3 0.0 0.0
3892360.0 5.08 0.0 0 0.0 0.3 0.0 0.0
3892370.0 4.61 0.0 0 0.0 0.3 0.0 0.0
3892380.0 6.12 0.0 0 0.0 0.3 0.0 0.0
3892390.0 5.57 0.0 0 0.0 0.3 0.0 0.0
3892400.0 4.1 0.0 0 0.0 0.3 0.0 0.0
3892410.0 3.65 0.0 0 0.0 0.3 0.0 0.0
3892420.0 3.47 0.0 0 0.0 0.3 0.0 0.0
3892430.0 5.06 0.0 0 0.0 0.3 0.0 0.0
3892440.0 5.34 0.0 0 0.0 0.3 0.0 0.0
3892450.0 6.88 0.0 0 0.0 0.3 0.0 0.0
3892460.0 7.24 0.0 0 0.0 0.3 0.0 0.0
3892470.0 5.8 0.0 0 0.0 0.3 0.0 0.0
3892480.0 6.1 0.0 0 0.0 0.3 0.0 0.0
3892490.0 6.28 0.0 0 0.0 0.3 0.0 0.0
3892500.0 5.7 0.0 0 0.0 0.3 0.0 0.0
3892510.0 4.81 0.0 0 0.0 0.3 0.0 0.0
3892520.0 5.38 0.0 0 0.0 0.3 0.0 0.0
3892530.0 5.27 0.0 0 0.0 0.3 0.0 0.0
3892540.0 5.16 0.0 0 0.0 0.3 0.0 0.0
3892550.0 3.71 0.0 0 0.0 0.3 0.0 0.0
3892560.0 4.74 0.0 0 0.0 0.3 0.0 0.0
3892570.0 5.12 0.0 0 0.0 0.3 0.0 0.0
3892580.0 5.72 0.0 0 0.0 0.3 0.0 0.0
3892590.0 5.25 0.0 0 0.0 0.3 0.0 0.0
3892600.0 4.79 0.0 0 0.0 0.3 0.0 0.0
3892610.0 3.61 0.0 0 0.0 0.3 0.0 0.0
3892620.0 3.65 0.0 0 0.0 0.3 0.0 0.0
3892630.0 3.92 0.0 0 0.0 0.3 0.0 0.0
3892640.0 3.81 0.0 0 0.0 0.3 0.0 0.0
3892650.0 3.43 0.0 0 0.0 0.3 0.0 0.0
3892660.0 3.42 0.0 0 0.0 0.3 0.0 0.0
3892670.0 4.76 0.0 0 0.0 0.3 0.0 0.0
3892680.0 5.36 0.0 0 0.0 0.3 0.0 0.0
3892690.0 4.51 0.0 0 0.0 0.3 0.0 0.0
3892700.0 3.63 0.0 0 0.0 0.3 0.0 0.0
3892710.0 2.62 0.0 0 0.0 0.3 0.0 0.0
3892720.0 1.65 0.0 0 0.0 0.3 0.0 0.0
3892730.0 1.45 0.0 0 0.0 0.3 0.0 0.0
3892740.0 4.87 0.0 0 0.0 0.3 0.0 0.0
3892750.0 5.93 0.0 0 0.0 0.3 0.0 0.0
3892760.0 4.99 0.0 0 0.0 0.3 0.0 0.0
3892770.0 4.87 0.0 0 0.0 0.3 0.0 0.0
3892780.0 3.85 0.0 0 0.0 0.3 0.0 0.0
3892790.0 4.11 0.0 0 0.0 0.3 0.0 0.0
3892800.0 4.03 0.0 0 0.0 0.3 0.0 0.0
3892810.0 5.54 0.0 0 0.0 0.3 0.0 0.0
3892820.0 6.31 0.0 0 0.0 0.3 0.0 0.0
3892830.0 7.06 0.0 0 0.0 0.3 0.0 0.0
3892840.0 6.81 0.0 0 0.0 0.3 0.0 0.0
3892850.0 7.06 0.0 0 0.0 0.3 0.0 0.0
3892860.0 6.97 0.0 0 0.0 0.3 0.0 0.0
3892870.0 6.97 0.0 0 0.0 0.3 0.0 0.0
3892880.0 6.52 0.0 0 0.0 0.3 0.0 0.0
3892890.0 6.72 0.0 0 0.0 0.3 0.0 0.0
3892900.0 6.72 0.0 0 0.0 0.3 0.0 0.0
3892910.0 7.14 0.0 0 0.0 0.3 0.0 0.0
3892920.0 6.07 0.0 0 0.0 0.3 0.0 0.0
3892930.0 5.3 0.0 0 0.0 0.3 0.0 0.0
3892940.0 4.67 0.0 0 0.0 0.3 0.0 0.0
3892950.0 4.2 0.0 0 0.0 0.3 0.0 0.0
3892960.0 3.83 0.0 0 0.0 0.3 0.0 0.0
3892970.0 4.08 0.0 0 0.0 0.3 0.0 0.0
3892980.0 4.05 0.0 0 0.0 0.3 0.0 0.0
3892990.0 3.61 0.0 0 0.0 0.3 0.0 0.0
3893000.0 4.03 0.0 0 0.0 0.3 0.0 0.0
3893010.0 5.21 0.0 0 0.0 0.3 0.0 0.0
3893020.0 6.46 0.0 0 0.0 0.3 0.0 0.0
3893030.0 5.53 0.0 0 0.0 0.3 0.0 0.0
3893040.0 5.75 0.0 0 0.0 0.3 0.0 0.0
3893050.0 6.81 0.0 0 0.0 0.3 0.0 0.0
3893060.0 6.28 0.0 0 0.0 0.3 0.0 0.0
3893070.0 6.14 0.0 0 0.0 0.3 0.0 0.0
3893080.0 6.23 0.0 0 0.0 0.3 0.0 0.0
3893090.0 5.52 0.0 0 0.0 0.3 0.0 0.0
3893100.0 4.82 0.0 0 0.0 0.3 0.0 0.0
3893110.0 5.63 0.0 0 0.0 0.3 0.0 0.0
3893120.0 5.45 0.0 0 0.0 0.3 0.0 0.0
3893130.0 5.21 0.0 0 0.0 0.3 0.0 0.0
3893140.0 4.97 0.0 0 0.0 0.3 0.0 0.0
3893150.0 4.12 0.0 0 0.0 0.3 0.0 0.0
3893160.0 3.36 0.0 0 0.0 0.3 0.0 0.0
3893170.0 2.42 0.0 0 0.0 0.3 0.0 0.0
3893180.0 4.46 0.0 0 0.0 0.3 0.0 0.0
3893190.0 6.25 0.0 0 0.0 0.3 0.0 0.0
3893200.0 5.85 0.0 0 0.0 0.3 0.0 0.0
3893210.0 4.86 0.0 0 0.0 0.3 0.0 0.0
3893220.0 3.97 0.0 0 0.0 0.3 0.0 0.0
3893230.0 2.86 0.0 0 0.0 0.3 0.0 0.0
3893240.0 4.68 0.0 0 0.0 0.3 0.0 0.0
3893250.0 5.7 0.0 0 0.0 0.3 0.0 0.0
3893260.0 5.05 0.0 0 0.0 0.3 0.0 0.0
3893270.0 4.3 0.0 0 0.0 0.3 0.0 0.0
3893280.0 3.47 0.0 0 0.0 0.3 0.0 0.0
3893290.0 3.58 0.0 0 0.0 0.3 0.0 0.0
3893300.0 4.11 0.0 0 0.0 0.3 0.0 0.0
3893310.0 4.79 0.0 0 0.0 0.3 0.0 0.0
3893320.0 5.25 0.0 0 0.0 0.3 0.0 0.0
3893330.0 5.5 0.0 0 0.0 0.3 0.0 0.0
3893340.0 5.86 0.0 0 0.0 0.3 0.0 0.0
3893350.0 6.55 0.0 0 0.0 0.3 0.0 0.0
3893360.0 6.32 0.0 0 0.0 0.3 0.0 0.0
3893370.0 6.23 0.0 0 0.0 0.3 0.0 0.0
3893380.0 4.85 0.0 0 0.0 0.3 0.0 0.0
3893390.0 3.87 0.0 0 0.0 0.3 0.0 0.0
3893400.0 5.28 0.0 0 0.0 0.3 0.0 0.0
3893410.0 5.32 0.0 0 0.0 0.3 0.0 0.0
3893420.0 5.03 0.0 0 0.0 0.3 0.0 0.0
3893430.0 4.73 0.0 0 0.0 0.3 0.0 0.0
3893440.0 5.75 0.0 0 0.0 0.3 0.0 0.0
3893450.0 5.23 0.0 0 0.0 0.3 0.0 0.0
3893460.0 4.68 0.0 0 0.0 0.3 0.0 0.0
3893470.0 4.62 0.0 0 0.0 0.3 0.0 0.0
3893480.0 4.17 0.0 0 0.0 0.3 0.0 0.0
3893490.0 4.41 0.0 0 0.0 0.3 0.0 0.0
3893500.0 4.29 0.0 0 0.0 0.3 0.0 0.0
3893510.0 4.3 0.0 0 0.0 0.3 0.0 0.0
3893520.0 5.3 0.0 0 0.0 0.3 0.0 0.0
3893530.0 5.38 0.0 0 0.0 0.3 0.0 0.0
3893540.0 4.84 0.0 0 0.0 0.3 0.0 0.0
3893550.0 5.09 0.0 0 0.0 0.3 0.0 0.0
3893560.0 5.6 0.0 0 0.0 0.3 0.0 0.0
3893570.0 6.86 0.0 0 0.0 0.3 0.0 0.0
3893580.0 6.66 0.0 0 0.0 0.3 0.0 0.0
3893590.0 5.78 0.0 0 0.0 0.3 0.0 0.0
3893600.0 4.53 0.0 0 0.0 0.3 0.0 0.0
3893610.0 4.35 0.0 0 0.0 0.3 0.0 0.0
3893620.0 5.21 0.0 0 0.0 0.3 0.0 0.0
3893630.0 5.38 0.0 0 0.0 0.3 0.0 0.0
3893640.0 6.52 0.0 0 0.0 0.3 0.0 0.0
3893650.0 6.07 0.0 0 0.0 0.3 0.0 0.0
3893660.0 5.22 0.0 0 0.0 0.3 0.0 0.0
3893670.0 5.21 0.0 0 0.0 0.3 0.0 0.0
3893680.0 6.48 0.0 0 0.0 0.3 0.0 0.0
3893690.0 6.16 0.0 0 0.0 0.3 0.0 0.0
3893700.0 6.41 0.0 0 0.0 0.3 0.0 0.0
3893710.0 5.86 0.0 0 0.0 0.3 0.0 0.0
3893720.0 6.3 0.0 0 0.0 0.3 0.0 0.0
3893730.0 5.86 0.0 0 0.0 0.3 0.0 0.0
3893740.0 6.77 0.0 0 0.0 0.3 0.0 0.0
3893750.0 5.4 0.0 0 0.0 0.3 0.0 0.0
3893760.0 4.96 0.0 0 0.0 0.3 0.0 0.0
3893770.0 3.97 0.0 0 0.0 0.3 0.0 0.0
3893780.0 4.43 0.0 0 0.0 0.3 0.0 0.0
3893790.0 5.43 0.0 0 0.0 0.3 0.0 0.0
3893800.0 5.17 0.0 0 0.0 0.3 0.0 0.0
3893810.0 5.17 0.0 0 0.0 0.3 0.0 0.0
3893820.0 4.34 0.0 0 0.0 0.3 0.0 0.0
3893830.0 4.6 0.0 0 0.0 0.3 0.0 0.0
3893840.0 3.52 0.0 0 0.0 0.3 0.0 0.0
3893850.0 3.33 0.0 0 0.0 0.3 0.0 0.0
3893860.0 4.45 0.0 0 0.0 0.3 0.0 0.0
3893870.0 5.71 0.0 0 0.0 0.3 0.0 0.0
3893880.0 5.17 0.0 0 0.0 0.3 0.0 0.0
3893890.0 6.48 0.0 0 0.0 0.3 0.0 0.0
3893900.0 7.51 0.0 0 0.0 0.3 0.0 0.0
3893910.0 7.06 0.0 0 0.0 0.3 0.0 0.0
3893920.0 5.88 0.0 0 0.0 0.3 0.0 0.0
3893930.0 5.11 0.0 0 0.0 0.3 0.0 0.0
3893940.0 5.39 0.0 0 0.0 0.3 0.0 0.0
3893950.0 5.26 0.0 0 0.0 0.3 0.0 0.0
3893960.0 6.13 0.0 0 0.0 0.3 0.0 0.0
3893970.0 6.03 0.0 0 0.0 0.3 0.0 0.0
3893980.0 5.19 0.0 0 0.0 0.3 0.0 0.0
3893990.0 4.48 0.0 0 0.0 0.3 0.0 0.0
3894000.0 6.52 0.0 0 0.0 0.3 0.0 0.0
3894010.0 6.17 0.0 0 0.0 0.3 0.0 0.0
3894020.0 5.56 0.0 0 0.0 0.3 0.0 0.0
3894030.0 4.89 0.0 0 0.0 0.3 0.0 0.0
3894040.0 5.2 0.0 0 0.0 0.3 0.0 0.0
3894050.0 6.56 0.0 0 0.0 0.3 0.0 0.0
3894060.0 6.33 0.0 0 0.0 0.3 0.0 0.0
3894070.0 6.91 0.0 0 0.0 0.3 0.0 0.0
3894080.0 5.88 0.0 0 0.0 0.3 0.0 0.0
3894090.0 4.93 0.0 0 0.0 0.3 0.0 0.0
3894100.0 4.81 0.0 0 0.0 0.3 0.0 0.0
3894110.0 4.18 0.0 0 0.0 0.3 0.0 0.0
3894120.0 5.35 0.0 0 0.0 0.3 0.0 0.0
3894130.0 5.39 0.0 0 0.0 0.3 0.0 0.0
3894140.0 4.92 0.0 0 0.0 0.3 0.0 0.0
3894150.0 3.45 0.0 0 0.0 0.3 0.0 0.0
3894160.0 3.71 0.0 0 0.0 0.3 0.0 0.0
3894170.0 5.08 0.0 0 0.0 0.3 0.0 0.0
3894180.0 6.18 0.0 0 0.0 0.3 0.0 0.0
3894190.0 5.65 0.0 0 0.0 0.3 0.0 0.0
3894200.0 5.39 0.0 0 0.0 0.3 0.0 0.0
3894210.0 6.6 0.0 0 0.0 0.3 0.0 0.0
3894220.0 7.5 0.0 0 0.0 0.3 0.0 0.0
3894230.0 6.8 0.0 0 0.0 0.3 0.0 0.0
3894240.0 6.93 0.0 0 0.0 0.3 0.0 0.0
3894250.0 6.07 0.0 0 0.0 0.3 0.0 0.0
3894260.0 6.62 0.0 0 0.0 0.3 0.0 0.0
3894270.0 5.66 0.0 0 0.0 0.3 0.0 0.0
3894280.0 5.68 0.0 0 0.0 0.3 0.0 0.0
3894290.0 7.31 0.0 0 0.0 0.3 0.0 0.0
3894300.0 6.87 0.0 0 0.0 0.3 0.0 0.0
3894310.0 7.46 0.0 0 0.0 0.3 0.0 0.0
3894320.0 6.41 0.0 0 0.0 0.3 0.0 0.0
3894330.0 7.15 0.0 0 0.0 0.3 0.0 0.0
3894340.0 6.28 0.0 0 0.0 0.3 0.0 0.0
3894350.0 5.27 0.0 0 0.0 0.3 0.0 0.0
3894360.0 6.42 0.0 0 0.0 0.3 0.0 0.0
3894370.0 5.66 0.0 0 0.0 0.3 0.0 0.0
3894380.0 5.48 0.0 0 0.0 0.3 0.0 0.0
3894390.0 4.24 0.0 0 0.0 0.3 0.0 0.0
3894400.0 4.79 0.0 0 0.0 0.3 0.0 0.0
3894410.0 4.96 0.0 0 0.0 0.3 0.0 0.0
3894420.0 5.1 0.0 0 0.0 0.3 0.0 0.0
3894430.0 4.53 0.0 0 0.0 0.3 0.0 0.0
3894440.0 4.69 0.0 0 0.0 0.3 0.0 0.0
3894450.0 3.76 0.0 0 0.0 0.3 0.0 0.0
3894460.0 3.71 0.0 0 0.0 0.3 0.0 0.0
3894470.0 4.72 0.0 0 0.0 0.3 0.0 0.0
3894480.0 6.17 0.0 0 0.0 0.3 0.0 0.0
3894490.0 6.4 0.0 0 0.0 0.3 0.0 0.0
3894500.0 6.51 0.0 0 0.0 0.3 0.0 0.0
3894510.0 6.71 0.0 0 0.0 0.3 0.0 0.0
3894520.0 6.18 0.0 0 0.0 0.3 0.0 0.0
3894530.0 4.96 0.0 0 0.0 0.3 0.0 0.0
3894540.0 4.13 0.0 0 0.0 0.3 0.0 0.0
3894550.0 3.63 0.0 0 0.0 0.3 0.0 0.0
3894560.0 4.64 0.0 0 0.0 0.3 0.0 0.0
3894570.0 5.38 0.0 0 0.0 0.3 0.0 0.0
3894580.0 4.25 0.0 0 0.0 0.3 0.0 0.0
3894590.0 3.81 0.0 0 0.0 0.3 0.0 0.0
3894600.0 3.73 0.0 0 0.0 0.3 0.0 0.0
3894610.0 3.39 0.0 0 0.0 0.3 0.0 0.0
3894620.0 2.63 0.0 0 0.0 0.3 0.0 0.0
3894630.0 3.23 0.0 0 0.0 0.3 0.0 0.0
3894640.0 4.33 0.0 0 0.0 0.3 0.0 0.0
3894650.0 4.08 0.0 0 0.0 0.3 0.0 0.0
3894660.0 4.84 0.0 0 0.0 0.3 0.0 0.0
3894670.0 5.57 0.0 0 0.0 0.3 0.0 0.0
3894680.0 5.54 0.0 0 0.0 0.3 0.0 0.0
3894690.0 4.75 0.0 0 0.0 0.3 0.0 0.0
3894700.0 5.51 0.0 0 0.0 0.3 0.0 0.0
3894710.0 4.36 0.0 0 0.0 0.3 0.0 0.0
3894720.0 3.47 0.0 0 0.0 0.3 0.0 0.0
3894730.0 3.23 0.0 0 0.0 0.3 0.0 0.0
3894740.0 3.53 0.0 0 0.0 0.3 0.0 0.0
3894750.0 4.31 0.0 0 0.0 0.3 0.0 0.0
3894760.0 4.76 0.0 0 0.0 0.3 0.0 0.0
3894770.0 4.63 0.0 0 0.0 0.3 0.0 0.0
3894780.0 6.93 0.0 0 0.0 0.3 0.0 0.0
3894790.0 6.63 0.0 0 0.0 0.3 0.0 0.0
3894800.0 5.94 0.0 0 0.0 0.3 0.0 0.0
3894810.0 6.17 0.0 0 0.0 0.3 0.0 0.0
3894820.0 6.93 0.0 0 0.0 0.3 0.0 0.0
3894830.0 6.46 0.0 0 0.0 0.3 0.0 0.0
3894840.0 6.52 0.0 0 0.0 0.3 0.0 0.0
3894850.0 5.75 0.0 0 0.0 0.3 0.0 0.0
3894860.0 4.77 0.0 0 0.0 0.3 0.0 0.0
3894870.0 4.34 0.0 0 0.0 0.3 0.0 0.0
3894880.0 3.29 0.0 0 0.0 0.3 0.0 0.0
3894890.0 3.2 0.0 0 0.0 0.3 0.0 0.0
3894900.0 3.01 0.0 0 0.0 0.3 0.0 0.0
3894910.0 1.78 0.0 0 0.0 0.3 0.0 0.0
3894920.0 1.34 0.0 0 0.0 0.3 0.0 0.0
3894930.0 3.59 0.0 0 0.0 0.3 0.0 0.0
3894940.0 5.03 0.0 0 0.0 0.3 0.0 0.0
3894950.0 5.44 0.0 0 0.0 0.3 0.0 0.0
3894960.0 5.45 0.0 0 0.0 0.3 0.0 0.0
3894970.0 3.87 0.0 0 0.0 0.3 0.0 0.0
3894980.0 3.38 0.0 0 0.0 0.3 0.0 0.0
3894990.0 5.07 0.0 0 0.0 0.3 0.0 0.0
3895000.0 4.42 0.0 0 0.0 0.3 0.0 0.0
3895010.0 4.53 0.0 0 0.0 0.3 0.0 0.0
3895020.0 4.38 0.0 0 0.0 0.3 0.0 0.0
3895030.0 5.36 0.0 0 0.0 0.3 0.0 0.0
3895040.0 5.28 0.0 0 0.0 0.3 0.0 0.0
3895050.0 4.99 0.0 0 0.0 0.3 0.0 0.0
3895060.0 4.98 0.0 0 0.0 0.3 0.0 0.0
3895070.0 5.72 0.0 0 0.0 0.3 0.0 0.0
3895080.0 5.27 0.0 0 0.0 0.3 0.0 0.0
3895090.0 4.0 0.0 0 0.0 0.3 0.0 0.0
3895100.0 2.94 0.0 0 0.0 0.3 0.0 0.0
3895110.0 3.88 0.0 0 0.0 0.3 0.0 0.0
3895120.0 4.36 0.0 0 0.0 0.3 0.0 0.0
3895130.0 4.17 0.0 0 0.0 0.3 0.0 0.0
3895140.0 4.06 0.0 0 0.0 0.3 0.0 0.0
3895150.0 5.08 0.0 0 0.0 0.3 0.0 0.0
3895160.0 4.18 0.0 0 0.0 0.3 0.0 0.0
3895170.0 4.99 0.0 0 0.0 0.3 0.0 0.0
3895180.0 5.97 0.0 0 0.0 0.3 0.0 0.0
3895190.0 6.9 0.0 0 0.0 0.3 0.0 0.0
3895200.0 6.18 0.0 0 0.0 0.3 0.0 0.0
3895210.0 4.46 0.0 0 0.0 0.3 0.0 0.0
3895220.0 2.97 0.0 0 0.0 0.3 0.0 0.0
3895230.0 3.99 0.0 0 0.0 0.3 0.0 0.0
3895240.0 5.16 0.0 0 0.0 0.3 0.0 0.0
3895250.0 4.85 0.0 0 0.0 0.3 0.0 0.0
3895260.0 4.68 0.0 0 0.0 0.3 0.0 0.0
3895270.0 5.64 0.0 0 0.0 0.3 0.0 0.0
3895280.0 6.33 0.0 0 0.0 0.3 0.0 0.0
3895290.0 5.33 0.0 0 0.0 0.3 0.0 0.0
3895300.0 5.53 0.0 0 0.0 0.3 0.0 0.0
3895310.0 5.69 0.0 0 0.0 0.3 0.0 0.0
3895320.0 5.39 0.0 0 0.0 0.3 0.0 0.0
3895330.0 5.2 0.0 0 0.0 0.3 0.0 0.0
3895340.0 4.93 0.0 0 0.0 0.3 0.0 0.0
3895350.0 4.23 0.0 0 0.0 0.3 0.0 0.0
3895360.0 3.57 0.0 0 0.0 0.3 0.0 0.0
3895370.0 3.36 0.0 0 0.0 0.3 0.0 0.0
3895380.0 2.94 0.0 0 0.0 0.3 0.0 0.0
3895390.0 2.67 0.0 0 0.0 0.3 0.0 0.0
3895400.0 3.64 0.0 0 0.0 0.3 0.0 0.0
3895410.0 3.81 0.0 0 0.0 0.3 0.0 0.0
3895420.0 3.6 0.0 0 0.0 0.3 0.0 0.0
3895430.0 2.81 0.0 0 0.0 0.3 0.0 0.0
3895440.0 3.35 0.0 0 0.0 0.3 0.0 0.0
3895450.0 4.49 0.0 0 0.0 0.3 0.0 0.0
3895460.0 5.28 0.0 0 0.0 0.3 0.0 0.0
3895470.0 5.62 0.0 0 0.0 0.3 0.0 0.0
3895480.0 5.65 0.0 0 0.0 0.3 0.0 0.0
3895490.0 5.37 0.0 0 0.0 0.3 0.0 0.0
3895500.0 5.38 0.0 0 0.0 0.3 0.0 0.0
3895510.0 4.9 0.0 0 0.0 0.3 0.0 0.0
3895520.0 4.4 0.0 0 0.0 0.3 0.0 0.0
3895530.0 4.33 0.0 0 0.0 0.3 0.0 0.0
3895540.0 4.75 0.0 0 0.0 0.3 0.0 0.0
3895550.0 4.69 0.0 0 0.0 0.3 0.0 0.0
3895560.0 4.18 0.0 0 0.0 0.3 0.0 0.0
3895570.0 3.53 0.0 0 0.0 0.3 0.0 0.0
3895580.0 3.6 0.0 0 0.0 0.3 0.0 0.0
3895590.0 4.72 0.0 0 0.0 0.3 0.0 0.0
3895600.0 4.93 0.0 0 0.0 0.3 0.0 0.0
3895610.0 5.94 0.0 0 0.0 0.3 0.0 0.0
3895620.0 5.73 0.0 0 0.0 0.3 0.0 0.0
3895630.0 5.99 0.0 0 0.0 0.3 0.0 0.0
3895640.0 6.94 0.0 0 0.0 0.3 0.0 0.0
3895650.0 6.83 0.0 0 0.0 0.3 0.0 0.0
3895660.0 6.61 0.0 0 0.0 0.3 0.0 0.0
3895670.0 6.16 0.0 0 0.0 0.3 0.0 0.0
3895680.0 5.78 0.0 0 0.0 0.3 0.0 0.0
3895690.0 6.02 0.0 0 0.0 0.3 0.0 0.0
3895700.0 5.0 0.0 0 0.0 0.3 0.0 0.0
3895710.0 4.88 0.0 0 0.0 0.3 0.0 0.0
3895720.0 5.11 0.0 0 0.0 0.3 0.0 0.0
3895730.0 5.38 0.0 0 0.0 0.3 0.0 0.0
3895740.0 6.0 0.0 0 0.0 0.3 0.0 0.0
3895750.0 5.7 0.0 0 0.0 0.3 0.0 0.0
3895760.0 5.29 0.0 0 0.0 0.3 0.0 0.0
3895770.0 4.33 0.0 0 0.0 0.3 0.0 0.0
3895780.0 4.88 0.0 0 0.0 0.3 0.0 0.0
3895790.0 5.05 0.0 0 0.0 0.3 0.0 0.0
3895800.0 4.61 0.0 0 0.0 0.3 0.0 0.0
3895810.0 5.03 0.0 0 0.0 0.3 0.0 0.0
3895820.0 4.44 0.0 0 0.0 0.3 0.0 0.0
3895830.0 4.21 0.0 0 0.0 0.3 0.0 0.0
3895840.0 4.82 0.0 0 0.0 0.3 0.0 0.0
3895850.0 4.46 0.0 0 0.0 0.3 0.0 0.0
3895860.0 3.16 0.0 0 0.0 0.3 0.0 0.0
3895870.0 2.78 0.0 0 0.0 0.3 0.0 0.0
3895880.0 3.38 0.0 0 0.0 0.3 0.0 0.0
3895890.0 5.24 0.0 0 0.0 0.3 0.0 0.0
3895900.0 6.48 0.0 0 0.0 0.3 0.0 0.0
3895910.0 6.86 0.0 0 0.0 0.3 0.0 0.0
3895920.0 5.76 0.0 0 0.0 0.3 0.0 0.0
3895930.0 5.25 0.0 0 0.0 0.3 0.0 0.0
3895940.0 4.85 0.0 0 0.0 0.3 0.0 0.0
3895950.0 4.71 0.0 0 0.0 0.3 0.0 0.0
3895960.0 4.48 0.0 0 0.0 0.3 0.0 0.0
3895970.0 4.99 0.0 0 0.0 0.3 0.0 0.0
3895980.0 4.79 0.0 0 0.0 0.3 0.0 0.0
3895990.0 5.33 0.0 0 0.0 0.3 0.0 0.0
3896000.0 5.91 0.0 0 0.0 0.3 0.0 0.0
3896010.0 5.92 0.0 0 0.0 0.3 0.0 0.0
3896020.0 5.19 0.0 0 0.0 0.3 0.0 0.0
3896030.0 5.8 0.0 0 0.0 0.3 0.0 0.0
3896040.0 6.05 0.0 0 0.0 0.3 0.0 0.0
3896050.0 7.59 0.0 0 0.0 0.3 0.0 0.0
3896060.0 7.98 0.0 0 0.0 0.3 0.0 0.0
3896070.0 8.16 0.0 0 0.0 0.3 0.0 0.0
3896080.0 6.44 0.0 0 0.0 0.3 0.0 0.0
3896090.0 5.5 0.0 0 0.0 0.3 0.0 0.0
3896100.0 6.02 0.0 0 0.0 0.3 0.0 0.0
3896110.0 7.49 0.0 0 0.0 0.3 0.0 0.0
3896120.0 6.41 0.0 0 0.0 0.3 0.0 0.0
3896130.0 5.31 0.0 0 0.0 0.3 0.0 0.0
3896140.0 4.6 0.0 0 0.0 0.3 0.0 0.0
3896150.0 6.4 0.0 0 0.0 0.3 0.0 0.0
3896160.0 6.46 0.0 0 0.0 0.3 0.0 0.0
3896170.0 6.67 0.0 0 0.0 0.3 0.0 0.0
3896180.0 5.89 0.0 0 0.0 0.3 0.0 0.0
3896190.0 6.37 0.0 0 0.0 0.3 0.0 0.0
3896200.0 5.88 0.0 0 0.0 0.3 0.0 0.0
3896210.0 6.11 0.0 0 0.0 0.3 0.0 0.0
3896220.0 6.51 0.0 0 0.0 0.3 0.0 0.0
3896230.0 6.98 0.0 0 0.0 0.3 0.0 0.0
3896240.0 5.65 0.0 0 0.0 0.3 0.0 0.0
3896250.0 6.4 0.0 0 0.0 0.3 0.0 0.0
3896260.0 7.26 0.0 0 0.0 0.3 0.0 0.0
3896270.0 6.88 0.0 0 0.0 0.3 0.0 0.0
3896280.0 5.78 0.0 0 0.0 0.3 0.0 0.0
3896290.0 6.47 0.0 0 0.0 0.3 0.0 0.0
3896300.0 7.89 0.0 0 0.0 0.3 0.0 0.0
3896310.0 7.34 0.0 0 0.0 0.3 0.0 0.0
3896320.0 6.23 0.0 0 0.0 0.3 0.0 0.0
3896330.0 5.42 0.0 0 0.0 0.3 0.0 0.0
3896340.0 6.89 0.0 0 0.0 0.3 0.0 0.0
3896350.0 6.17 0.0 0 0.0 0.3 0.0 0.0
3896360.0 6.38 0.0 0 0.0 0.3 0.0 0.0
3896370.0 6.13 0.0 0 0.0 0.3 0.0 0.0
3896380.0 6.82 0.0 0 0.0 0.3 0.0 0.0
3896390.0 6.5 0.0 0 0.0 0.3 0.0 0.0
3896400.0 5.11 0.0 0 0.0 0.3 0.0 0.0
3896410.0 5.4 0.0 0 0.0 0.3 0.0 0.0
3896420.0 5.33 0.0 0 0.0 0.3 0.0 0.0
3896430.0 4.77 0.0 0 0.0 0.3 0.0 0.0
3896440.0 5.05 0.0 0 0.0 0.3 0.0 0.0
3896450.0 4.19 0.0 0 0.0 0.3 0.0 0.0
3896460.0 6.02 0.0 0 0.0 0.3 0.0 0.0
3896470.0 6.69 0.0 0 0.0 0.3 0.0 0.0
3896480.0 6.81 0.0 0 0.0 0.3 0.0 0.0
3896490.0 5.25 0.0 0 0.0 0.3 0.0 0.0
3896500.0 5.15 0.0 0 0.0 0.3 0.0 0.0
3896510.0 4.26 0.0 0 0.0 0.3 0.0 0.0
3896520.0 4.39 0.0 0 0.0 0.3 0.0 0.0
3896530.0 3.83 0.0 0 0.0 0.3 0.0 0.0
3896540.0 5.07 0.0 0 0.0 0.3 0.0 0.0
3896550.0 6.76 0.0 0 0.0 0.3 0.0 0.0
3896560.0 5.22 0.0 0 0.0 0.3 0.0 0.0
3896570.0 5.09 0.0 0 0.0 0.3 0.0 0.0
3896580.0 6.56 0.0 0 0.0 0.3 0.0 0.0
3896590.0 6.57 0.0 0 0.0 0.3 0.0 0.0
3896600.0 6.07 0.0 0 0.0 0.3 0.0 0.0
3896610.0 5.4 0.0 0 0.0 0.3 0.0 0.0
3896620.0 5.32 0.0 0 0.0 0.3 0.0 0.0
3896630.0 4.86 0.0 0 0.0 0.3 0.0 0.0
3896640.0 4.37 0.0 0 0.0 0.3 0.0 0.0
3896650.0 4.28 0.0 0 0.0 0.3 0.0 0.0
3896660.0 4.27 0.0 0 0.0 0.3 0.0 0.0
3896670.0 4.84 0.0 0 0.0 0.3 0.0 0.0
3896680.0 4.89 0.0 0 0.0 0.3 0.0 0.0
3896690.0 5.38 0.0 0 0.0 0.3 0.0 0.0
3896700.0 4.81 0.0 0 0.0 0.3 0.0 0.0
3896710.0 3.09 0.0 0 0.0 0.3 0.0 0.0
3896720.0 4.58 0.0 0 0.0 0.3 0.0 0.0
3896730.0 4.76 0.0 0 0.0 0.3 0.0 0.0
3896740.0 2.93 0.0 0 0.0 0.3 0.0 0.0
3896750.0 2.07 0.0 0 0.0 0.3 0.0 0.0
3896760.0 2.46 0.0 0 0.0 0.3 0.0 0.0
3896770.0 2.97 0.0 0 0.0 0.3 0.0 0.0
3896780.0 3.41 0.0 0 0.0 0.3 0.0 0.0
3896790.0 3.69 0.0 0 0.0 0.3 0.0 0.0
3896800.0 5.07 0.0 0 0.0 0.3 0.0 0.0
3896810.0 5.4 0.0 0 0.0 0.3 0.0 0.0
3896820.0 5.49 0.0 0 0.0 0.3 0.0 0.0
3896830.0 5.47 0.0 0 0.0 0.3 0.0 0.0
3896840.0 4.96 0.0 0 0.0 0.3 0.0 0.0
3896850.0 4.83 0.0 0 0.0 0.3 0.0 0.0
3896860.0 4.66 0.0 0 0.0 0.3 0.0 0.0
3896870.0 4.3 0.0 0 0.0 0.3 0.0 0.0
3896880.0 4.27 0.0 0 0.0 0.3 0.0 0.0
3896890.0 3.61 0.0 0 0.0 0.3 0.0 0.0
3896900.0 4.43 0.0 0 0.0 0.3 0.0 0.0
3896910.0 4.68 0.0 0 0.0 0.3 0.0 0.0
3896920.0 4.25 0.0 0 0.0 0.3 0.0 0.0
3896930.0 3.49 0.0 0 0.0 0.3 0.0 0.0
3896940.0 2.73 0.0 0 0.0 0.3 0.0 0.0
3896950.0 1.98 0.0 0 0.0 0.3 0.0 0.0
3896960.0 2.17 0.0 0 0.0 0.3 0.0 0.0
3896970.0 4.12 0.0 0 0.0 0.3 0.0 0.0
3896980.0 3.93 0.0 0 0.0 0.3 0.0 0.0
3896990.0 2.91 0.0 0 0.0 0.3 0.0 0.0
3897000.0 2.5 0.0 0 0.0 0.3 0.0 0.0
3897010.0 1.56 0.0 0 0.0 0.3 0.0 0.0
3897020.0 1.8 0.0 0 0.0 0.3 0.0 0.0
3897030.0 2.46 0.0 0 0.0 0.3 0.0 0.0
3897040.0 2.47 0.0 0 0.0 0.3 0.0 0.0
3897050.0 2.63 0.0 0 0.0 0.3 0.0 0.0
3897060.0 1.69 0.0 0 0.0 0.3 0.0 0.0
3897070.0 1.27 0.0 0 0.0 0.3 0.0 0.0
3897080.0 1.13 0.0 0 0.0 0.3 0.0 0.0
3897090.0 2.72 0.0 0 0.0 0.3 0.0 0.0
3897100.0 3.01 0.0 0 0.0 0.3 0.0 0.0
3897110.0 3.26 0.0 0 0.0 0.3 0.0 0.0
3897120.0 3.86 0.0 0 0.0 0.3 0.0 0.0
3897130.0 3.3 0.0 0 0.0 0.3 0.0 0.0
3897140.0 2.9 0.0 0 0.0 0.3 0.0 0.0
3897150.0 2.17 0.0 0 0.0 0.3 0.0 0.0
3897160.0 2.19 0.0 0 0.0 0.3 0.0 0.0
3897170.0 2.94 0.0 0 0.0 0.3 0.0 0.0
3897180.0 4.14 0.0 0 0.0 0.3 0.0 0.0
3897190.0 4.16 0.0 0 0.0 0.3 0.0 0.0
3897200.0 3.55 0.0 0 0.0 0.3 0.0 0.0
3897210.0 3.59 0.0 0 0.0 0.3 0.0 0.0
3897220.0 3.98 0.0 0 0.0 0.3 0.0 0.0
3897230.0 2.56 0.0 0 0.0 0.3 0.0 0.0
3897240.0 2.61 0.0 0 0.0 0.3 0.0 0.0
3897250.0 4.33 0.0 0 0.0 0.3 0.0 0.0
3897260.0 5.26 0.0 0 0.0 0.3 0.0 0.0
3897270.0 5.08 0.0 0 0.0 0.3 0.0 0.0
3897280.0 4.14 0.0 0 0.0 0.3 0.0 0.0
3897290.0 3.76 0.0 0 0.0 0.3 0.0 0.0
3897300.0 3.63 0.0 0 0.0 0.3 0.0 0.0
3897310.0 4.35 0.0 0 0.0 0.3 0.0 0.0
3897320.0 3.76 0.0 0 0.0 0.3 0.0 0.0
3897330.0 3.98 0.0 0 0.0 0.3 0.0 0.0
3897340.0 4.98 0.0 0 0.0 0.3 0.0 0.0
3897350.0 5.36 0.0 0 0.0 0.3 0.0 0.0
3897360.0 4.46 0.0 0 0.0 0.3 0.0 0.0
3897370.0 4.06 0.0 0 0.0 0.3 0.0 0.0
3897380.0 3.54 0.0 0 0.0 0.3 0.0 0.0
3897390.0 4.05 0.0 0 0.0 0.3 0.0 0.0
3897400.0 3.86 0.0 0 0.0 0.3 0.0 0.0
3897410.0 2.46 0.0 0 0.0 0.3 0.0 0.0
3897420.0 3.57 0.0 0 0.0 0.3 0.0 0.0
3897430.0 3.48 0.0 0 0.0 0.3 0.0 0.0
3897440.0 2.5 0.0 0 0.0 0.3 0.0 0.0
3897450.0 2.38 0.0 0 0.0 0.3 0.0 0.0
3897460.0 2.2 0.0 0 0.0 0.3 0.0 0.0
3897470.0 1.74 0.0 0 0.0 0.3 0.0 0.0
3897480.0 2.0 0.0 0 0.0 0.3 0.0 0.0
3897490.0 2.38 0.0 0 0.0 0.3 0.0 0.0
3897500.0 3.01 0.0 0 0.0 0.3 0.0 0.0
3897510.0 2.79 0.0 0 0.0 0.3 0.0 0.0
3897520.0 2.87 0.0 0 0.0 0.3 0.0 0.0
3897530.0 3.57 0.0 0 0.0 0.3 0.0 0.0
3897540.0 4.35 0.0 0 0.0 0.3 0.0 0.0
3897550.0 3.77 0.0 0 0.0 0.3 0.0 0.0
3897560.0 3.24 0.0 0 0.0 0.3 0.0 0.0
3897570.0 2.77 0.0 0 0.0 0.3 0.0 0.0
3897580.0 3.13 0.0 0 0.0 0.3 0.0 0.0
3897590.0 3.2 0.0 0 0.0 0.3 0.0 0.0
3897600.0 3.86 0.0 0 0.0 0.3 0.0 0.0
3897610.0 4.48 0.0 0 0.0 0.3 0.0 0.0
3897620.0 4.36 0.0 0 0.0 0.3 0.0 0.0
3897630.0 4.37 0.0 0 0.0 0.3 0.0 0.0
3897640.0 3.94 0.0 0 0.0 0.3 0.0 0.0
3897650.0 3.91 0.0 0 0.0 0.3 0.0 0.0
3898940.0 5.71 0.0 0 0.0 0.3 0.0 0.0
3898950.0 5.84 0.0 0 0.0 0.3 0.0 0.0
3898960.0 5.4 0.0 0 0.0 0.3 0.0 0.0
3898970.0 4.84 0.0 0 0.0 0.3 0.0 0.0
3898980.0 4.37 0.0 0 0.0 0.3 0.0 0.0
3898990.0 3.98 0.0 0 0.0 0.3 0.0 0.0
3899000.0 4.09 0.0 0 0.0 0.3 0.0 0.0
3899010.0 3.96 0.0 0 0.0 0.3 0.0 0.0
3899020.0 3.15 0.0 0 0.0 0.3 0.0 0.0
3899030.0 3.67 0.0 0 0.0 0.3 0.0 0.0
3899040.0 5.22 0.0 0 0.0 0.3 0.0 0.0
3899050.0 4.78 0.0 0 0.0 0.3 0.0 0.0
3899060.0 4.67 0.0 0 0.0 0.3 0.0 0.0
3899070.0 5.06 0.0 0 0.0 0.3 0.0 0.0
3899080.0 3.97 0.0 0 0.0 0.3 0.0 0.0
3899090.0 4.59 0.0 0 0.0 0.3 0.0 0.0
3899100.0 4.64 0.0 0 0.0 0.3 0.0 0.0
3899110.0 4.84 0.0 0 0.0 0.3 0.0 0.0
3899120.0 5.09 0.0 0 0.0 0.3 0.0 0.0
3899130.0 4.87 0.0 0 0.0 0.3 0.0 0.0
3899140.0 5.47 0.0 0 0.0 0.3 0.0 0.0
3899150.0 5.24 0.0 0 0.0 0.3 0.0 0.0
3899160.0 5.11 0.0 0 0.0 0.3 0.0 0.0
3899170.0 4.81 0.0 0 0.0 0.3 0.0 0.0
3899180.0 3.64 0.0 0 0.0 0.3 0.0 0.0
3899190.0 3.23 0.0 0 0.0 0.3 0.0 0.0
3899200.0 2.33 0.0 0 0.0 0.3 0.0 0.0
3899210.0 1.0 0.0 0 0.0 0.3 0.0 0.0
3899220.0 1.17 0.0 0 0.0 0.3 0.0 0.0
3899230.0 1.82 0.0 0 0.0 0.3 0.0 0.0
3899240.0 3.87 0.0 0 0.0 0.3 0.0 0.0
3899250.0 4.35 0.0 0 0.0 0.3 0.0 0.0
3899260.0 5.29 0.0 0 0.0 0.3 0.0 0.0
3899270.0 5.2 0.0 0 0.0 0.3 0.0 0.0
3899280.0 4.82 0.0 0 0.0 0.3 0.0 0.0
3899290.0 4.84 0.0 0 0.0 0.3 0.0 0.0
3899300.0 4.02 0.0 0 0.0 0.3 0.0 0.0
3899310.0 3.83 0.0 0 0.0 0.3 0.0 0.0
3899320.0 4.0 0.0 0 0.0 0.3 0.0 0.0
3899330.0 4.82 0.0 0 0.0 0.3 0.0 0.0
3899340.0 4.88 0.0 0 0.0 0.3 0.0 0.0
3899350.0 5.03 0.0 0 0.0 0.3 0.0 0.0
3899360.0 4.64 0.0 0 0.0 0.3 0.0 0.0
3899370.0 4.26 0.0 0 0.0 0.3 0.0 0.0
3899380.0 3.63 0.0 0 0.0 0.3 0.0 0.0
3899390.0 3.27 0.0 0 0.0 0.3 0.0 0.0
3899400.0 2.24 0.0 0 0.0 0.3 0.0 0.0
3899410.0 1.25 0.0 0 0.0 0.3 0.0 0.0
3899420.0 0.98 0.0 0 0.0 0.3 0.0 0.0
3899430.0 1.15 0.0 0 0.0 0.3 0.0 0.0
3899440.0 2.4 0.0 0 0.0 0.3 0.0 0.0
3899450.0 2.48 0.0 0 0.0 0.3 0.0 0.0
3899460.0 2.4 0.0 0 0.0 0.3 0.0 0.0
3899470.0 2.42 0.0 0 0.0 0.3 0.0 0.0
3899480.0 3.95 0.0 0 0.0 0.3 0.0 0.0
3899490.0 4.22 0.0 0 0.0 0.3 0.0 0.0
3899500.0 5.23 0.0 0 0.0 0.3 0.0 0.0
3899510.0 4.71 0.0 0 0.0 0.3 0.0 0.0
3899520.0 5.12 0.0 0 0.0 0.3 0.0 0.0
3899530.0 5.15 0.0 0 0.0 0.3 0.0 0.0
3899540.0 4.18 0.0 0 0.0 0.3 0.0 0.0
3899550.0 4.15 0.0 0 0.0 0.3 0.0 0.0
3899560.0 3.91 0.0 0 0.0 0.3 0.0 0.0
3899570.0 3.58 0.0 0 0.0 0.3 0.0 0.0
3899580.0 4.15 0.0 0 0.0 0.3 0.0 0.0
3899590.0 5.14 0.0 0 0.0 0.3 0.0 0.0
3899600.0 4.48 0.0 0 0.0 0.3 0.0 0.0
3899610.0 3.6 0.0 0 0.0 0.3 0.0 0.0
3899620.0 3.2 0.0 0 0.0 0.3 0.0 0.0
3899630.0 3.22 0.0 0 0.0 0.3 0.0 0.0
3899640.0 3.33 0.0 0 0.0 0.3 0.0 0.0
3899650.0 4.1 0.0 0 0.0 0.3 0.0 0.0
3899660.0 5.26 0.0 0 0.0 0.3 0.0 0.0
3899670.0 5.35 0.0 0 0.0 0.3 0.0 0.0
3899680.0 5.06 0.0 0 0.0 0.3 0.0 0.0
3899690.0 5.59 0.0 0 0.0 0.3 0.0 0.0
3899700.0 5.36 0.0 0 0.0 0.3 0.0 0.0
3899710.0 4.18 0.0 0 0.0 0.3 0.0 0.0
3899720.0 3.85 0.0 0 0.0 0.3 0.0 0.0
3899730.0 4.8 0.0 0 0.0 0.3 0.0 0.0
3899740.0 5.25 0.0 0 0.0 0.3 0.0 0.0
3899750.0 4.64 0.0 0 0.0 0.3 0.0 0.0
3899760.0 4.6 0.0 0 0.0 0.3 0.0 0.0
3899770.0 4.55 0.0 0 0.0 0.3 0.0 0.0
3899780.0 4.34 0.0 0 0.0 0.3 0.0 0.0
3899790.0 4.44 0.0 0 0.0 0.3 0.0 0.0
3899800.0 4.63 0.0 0 0.0 0.3 0.0 0.0
3899810.0 4.33 0.0 0 0.0 0.3 0.0 0.0
3899820.0 4.07 0.0 0 0.0 0.3 0.0 0.0
3899830.0 4.38 0.0 0 0.0 0.3 0.0 0.0
3899840.0 5.18 0.0 0 0.0 0.3 0.0 0.0
3899850.0 4.59 0.0 0 0.0 0.3 0.0 0.0
3899860.0 3.99 0.0 0 0.0 0.3 0.0 0.0
3899870.0 4.02 0.0 0 0.0 0.3 0.0 0.0
3899880.0 3.66 0.0 0 0.0 0.3 0.0 0.0
3899890.0 3.12 0.0 0 0.0 0.3 0.0 0.0
3899900.0 3.3 0.0 0 0.0 0.3 0.0 0.0
3899910.0 3.98 0.0 0 0.0 0.3 0.0 0.0
3899920.0 3.58 0.0 0 0.0 0.3 0.0 0.0
3899930.0 3.3 0.0 0 0.0 0.3 0.0 0.0
3899940.0 3.35 0.0 0 0.0 0.3 0.0 0.0
3899950.0 3.8 0.0 0 0.0 0.3 0.0 0.0
3899960.0 3.88 0.0 0 0.0 0.3 0.0 0.0
3899970.0 4.13 0.0 0 0.0 0.3 0.0 0.0
3899980.0 4.71 0.0 0 0.0 0.3 0.0 0.0
3899990.0 4.65 0.0 0 0.0 0.3 0.0 0.0
3900000.0 4.33 0.0 0 0.0 0.3 0.0 0.0
3900010.0 4.31 0.0 0 0.0 0.3 0.0 0.0
3900020.0 4.0 0.0 0 0.0 0.3 0.0 0.0
3900030.0 3.85 0.0 0 0.0 0.3 0.0 0.0
3900040.0 3.92 0.0 0 0.0 0.3 0.0 0.0
3900050.0 4.53 0.0 0 0.0 0.3 0.0 0.0
3900060.0 4.16 0.0 0 0.0 0.3 0.0 0.0
3900070.0 4.23 0.0 0 0.0 0.3 0.0 0.0
3900080.0 4.51 0.0 0 0.0 0.3 0.0 0.0
3900090.0 4.54 0.0 0 0.0 0.3 0.0 0.0
3900100.0 4.03 0.0 0 0.0 0.3 0.0 0.0
3900110.0 4.34 0.0 0 0.0 0.3 0.0 0.0
3900120.0 4.36 0.0 0 0.0 0.3 0.0 0.0
3900130.0 3.64 0.0 0 0.0 0.3 0.0 0.0
3900140.0 2.88 0.0 0 0.0 0.3 0.0 0.0
3900150.0 2.83 0.0 0 0.0 0.3 0.0 0.0
3900160.0 3.38 0.0 0 0.0 0.3 0.0 0.0
3900170.0 5.09 0.0 0 0.0 0.3 0.0 0.0
3900180.0 5.24 0.0 0 0.0 0.3 0.0 0.0
3900190.0 4.46 0.0 0 0.0 0.3 0.0 0.0
3900200.0 3.59 0.0 0 0.0 0.3 0.0 0.0
3900210.0 3.62 0.0 0 0.0 0.3 0.0 0.0
3900220.0 4.38 0.0 0 0.0 0.3 0.0 0.0
3900230.0 4.93 0.0 0 0.0 0.3 0.0 0.0
3900240.0 4.53 0.0 0 0.0 0.3 0.0 0.0
3900250.0 4.13 0.0 0 0.0 0.3 0.0 0.0
3900260.0 4.21 0.0 0 0.0 0.3 0.0 0.0
3900270.0 4.04 0.0 0 0.0 0.3 0.0 0.0
3900280.0 3.48 0.0 0 0.0 0.3 0.0 0.0
3900290.0 3.19 0.0 0 0.0 0.3 0.0 0.0
3900300.0 3.57 0.0 0 0.0 0.3 0.0 0.0
3900310.0 3.76 0.0 0 0.0 0.3 0.0 0.0
3900320.0 5.04 0.0 0 0.0 0.3 0.0 0.0
3900330.0 4.56 0.0 0 0.0 0.3 0.0 0.0
3900340.0 4.18 0.0 0 0.0 0.3 0.0 0.0
3900350.0 4.31 0.0 0 0.0 0.3 0.0 0.0
3900360.0 4.37 0.0 0 0.0 0.3 0.0 0.0
3900370.0 4.06 0.0 0 0.0 0.3 0.0 0.0
3900380.0 3.07 0.0 0 0.0 0.3 0.0 0.0
3900390.0 2.55 0.0 0 0.0 0.3 0.0 0.0
3900400.0 3.77 0.0 0 0.0 0.3 0.0 0.0
3900410.0 4.19 0.0 0 0.0 0.3 0.0 0.0
3900420.0 5.05 0.0 0 0.0 0.3 0.0 0.0
3900430.0 3.74 0.0 0 0.0 0.3 0.0 0.0
3900440.0 3.18 0.0 0 0.0 0.3 0.0 0.0
3900450.0 4.66 0.0 0 0.0 0.3 0.0 0.0
3900460.0 3.87 0.0 0 0.0 0.3 0.0 0.0
3900470.0 3.18 0.0 0 0.0 0.3 0.0 0.0
3900480.0 3.16 0.0 0 0.0 0.3 0.0 0.0
3900490.0 3.94 0.0 0 0.0 0.3 0.0 0.0
3900500.0 4.23 0.0 0 0.0 0.3 0.0 0.0
3900510.0 4.74 0.0 0 0.0 0.3 0.0 0.0
3900520.0 4.34 0.0 0 0.0 0.3 0.0 0.0
3900530.0 4.86 0.0 0 0.0 0.3 0.0 0.0
3900540.0 4.29 0.0 0 0.0 0.3 0.0 0.0
3900550.0 4.24 0.0 0 0.0 0.3 0.0 0.0
3900560.0 4.63 0.0 0 0.0 0.3 0.0 0.0
3900570.0 4.73 0.0 0 0.0 0.3 0.0 0.0
3900580.0 3.99 0.0 0 0.0 0.3 0.0 0.0
3900590.0 3.8 0.0 0 0.0 0.3 0.0 0.0
3900600.0 3.59 0.0 0 0.0 0.3 0.0 0.0
3900610.0 2.7 0.0 0 0.0 0.3 0.0 0.0
3900620.0 3.64 0.0 0 0.0 0.3 0.0 0.0
3900630.0 3.69 0.0 0 0.0 0.3 0.0 0.0
3900640.0 4.78 0.0 0 0.0 0.3 0.0 0.0
3900650.0 5.61 0.0 0 0.0 0.3 0.0 0.0
3900660.0 5.08 0.0 0 0.0 0.3 0.0 0.0
3900670.0 5.3 0.0 0 0.0 0.3 0.0 0.0
3900680.0 4.57 0.0 0 0.0 0.3 0.0 0.0
3900690.0 5.39 0.0 0 0.0 0.3 0.0 0.0
3900700.0 3.72 0.0 0 0.0 0.3 0.0 0.0
3900710.0 3.16 0.0 0 0.0 0.3 0.0 0.0
3900720.0 4.91 0.0 0 0.0 0.3 0.0 0.0
3900730.0 5.52 0.0 0 0.0 0.3 0.0 0.0
3900740.0 5.32 0.0 0 0.0 0.3 0.0 0.0
3900750.0 4.79 0.0 0 0.0 0.3 0.0 0.0
3900760.0 5.04 0.0 0 0.0 0.3 0.0 0.0
3900770.0 4.78 0.0 0 0.0 0.3 0.0 0.0
3900780.0 4.85 0.0 0 0.0 0.3 0.0 0.0
3900790.0 4.64 0.0 0 0.0 0.3 0.0 0.0
3900800.0 4.74 0.0 0 0.0 0.3 0.0 0.0
3900810.0 5.06 0.0 0 0.0 0.3 0.0 0.0
3900820.0 5.32 0.0 0 0.0 0.3 0.0 0.0
3900830.0 5.46 0.0 0 0.0 0.3 0.0 0.0
3900840.0 5.7 0.0 0 0.0 0.3 0.0 0.0
3900850.0 5.19 0.0 0 0.0 0.3 0.0 0.0
3900860.0 5.11 0.0 0 0.0 0.3 0.0 0.0
3900870.0 5.24 0.0 0 0.0 0.3 0.0 0.0
3900880.0 5.14 0.0 0 0.0 0.3 0.0 0.0
3900890.0 5.38 0.0 0 0.0 0.3 0.0 0.0
3900900.0 4.94 0.0 0 0.0 0.3 0.0 0.0
3900910.0 4.5 0.0 0 0.0 0.3 0.0 0.0
3900920.0 3.88 0.0 0 0.0 0.3 0.0 0.0
3900930.0 3.7 0.0 0 0.0 0.3 0.0 0.0
3900940.0 4.05 0.0 0 0.0 0.3 0.0 0.0
3900950.0 4.58 0.0 0 0.0 0.3 0.0 0.0
3900960.0 4.51 0.0 0 0.0 0.3 0.0 0.0
3900970.0 4.1 0.0 0 0.0 0.3 0.0 0.0
3900980.0 4.31 0.0 0 0.0 0.3 0.0 0.0
3900990.0 5.1 0.0 0 0.0 0.3 0.0 0.0
3901000.0 5.16 0.0 0 0.0 0.3 0.0 0.0
3901010.0 5.34 0.0 0 0.0 0.3 0.0 0.0
3901020.0 5.6 0.0 0 0.0 0.3 0.0 0.0
3901030.0 4.57 0.0 0 0.0 0.3 0.0 0.0
3901040.0 4.94 0.0 0 0.0 0.3 0.0 0.0
3901050.0 4.6 0.0 0 0.0 0.3 0.0 0.0
3901060.0 4.56 0.0 0 0.0 0.3 0.0 0.0
3901070.0 4.7 0.0 0 0.0 0.3 0.0 0.0
3901080.0 3.65 0.0 0 0.0 0.3 0.0 0.0
3901090.0 1.98 0.0 0 0.0 0.3 0.0 0.0
3901100.0 3.12 0.0 0 0.0 0.3 0.0 0.0
3901110.0 3.66 0.0 0 0.0 0.3 0.0 0.0
3901120.0 4.62 0.0 0 0.0 0.3 0.0 0.0
3901130.0 5.25 0.0 0 0.0 0.3 0.0 0.0
3901140.0 5.47 0.0 0 0.0 0.3 0.0 0.0
3901150.0 5.43 0.0 0 0.0 0.3 0.0 0.0
3901160.0 4.75 0.0 0 0.0 0.3 0.0 0.0
3901170.0 5.05 0.0 0 0.0 0.3 0.0 0.0
3901180.0 4.28 0.0 0 0.0 0.3 0.0 0.0
3901190.0 3.04 0.0 0 0.0 0.3 0.0 0.0
3901200.0 2.53 0.0 0 0.0 0.3 0.0 0.0
3901210.0 4.3 0.0 0 0.0 0.3 0.0 0.0
3901220.0 5.6 0.0 0 0.0 0.3 0.0 0.0
3901230.0 4.98 0.0 0 0.0 0.3 0.0 0.0
3901240.0 5.39 0.0 0 0.0 0.3 0.0 0.0
3901250.0 5.1 0.0 0 0.0 0.3 0.0 0.0
3901260.0 4.76 0.0 0 0.0 0.3 0.0 0.0
3901270.0 5.44 0.0 0 0.0 0.3 0.0 0.0
3901280.0 5.89 0.0 0 0.0 0.3 0.0 0.0
3901290.0 4.82 0.0 0 0.0 0.3 0.0 0.0
3901300.0 4.58 0.0 0 0.0 0.3 0.0 0.0
3901310.0 5.31 0.0 0 0.0 0.3 0.0 0.0
3901320.0 5.29 0.0 0 0.0 0.3 0.0 0.0
3901330.0 5.99 0.0 0 0.0 0.3 0.0 0.0
3901340.0 5.86 0.0 0 0.0 0.3 0.0 0.0
3901350.0 5.22 0.0 0 0.0 0.3 0.0 0.0
3901360.0 4.92 0.0 0 0.0 0.3 0.0 0.0
3901370.0 5.2 0.0 0 0.0 0.3 0.0 0.0
3901380.0 5.5 0.0 0 0.0 0.3 0.0 0.0
3901390.0 5.27 0.0 0 0.0 0.3 0.0 0.0
3901400.0 6.31 0.0 0 0.0 0.3 0.0 0.0
3901410.0 5.54 0.0 0 0.0 0.3 0.0 0.0
3901420.0 6.74 0.0 0 0.0 0.3 0.0 0.0
3901430.0 6.64 0.0 0 0.0 0.3 0.0 0.0
3901440.0 6.45 0.0 0 0.0 0.3 0.0 0.0
3901450.0 7.02 0.0 0 0.0 0.3 0.0 0.0
3901460.0 7.15 0.0 0 0.0 0.3 0.0 0.0
3901470.0 7.06 0.0 0 0.0 0.3 0.0 0.0
3901480.0 6.68 0.0 0 0.0 0.3 0.0 0.0
3901490.0 5.91 0.0 0 0.0 0.3 0.0 0.0
3901500.0 5.24 0.0 0 0.0 0.3 0.0 0.0
3901510.0 5.29 0.0 0 0.0 0.3 0.0 0.0
3901520.0 4.93 0.0 0 0.0 0.3 0.0 0.0
3901530.0 5.17 0.0 0 0.0 0.3 0.0 0.0
3901540.0 4.65 0.0 0 0.0 0.3 0.0 0.0
3901550.0 5.05 0.0 0 0.0 0.3 0.0 0.0
3901560.0 5.98 0.0 0 0.0 0.3 0.0 0.0
3901570.0 5.86 0.0 0 0.0 0.3 0.0 0.0
3901580.0 6.7 0.0 0 0.0 0.3 0.0 0.0
3901590.0 7.61 0.0 0 0.0 0.3 0.0 0.0
3901600.0 7.18 0.0 0 0.0 0.3 0.0 0.0
3901610.0 5.87 0.0 0 0.0 0.3 0.0 0.0
3901620.0 5.56 0.0 0 0.0 0.3 0.0 0.0
3901630.0 6.13 0.0 0 0.0 0.3 0.0 0.0
3901640.0 5.55 0.0 0 0.0 0.3 0.0 0.0
3901650.0 4.64 0.0 0 0.0 0.3 0.0 0.0
3901660.0 5.23 0.0 0 0.0 0.3 0.0 0.0
3901670.0 5.14 0.0 0 0.0 0.3 0.0 0.0
3901680.0 5.35 0.0 0 0.0 0.3 0.0 0.0
3901690.0 4.82 0.0 0 0.0 0.3 0.0 0.0
3901700.0 5.12 0.0 0 0.0 0.3 0.0 0.0
3901710.0 5.29 0.0 0 0.0 0.3 0.0 0.0
3901720.0 5.14 0.0 0 0.0 0.3 0.0 0.0
3901730.0 5.82 0.0 0 0.0 0.3 0.0 0.0
3901740.0 6.13 0.0 0 0.0 0.3 0.0 0.0
3901750.0 6.08 0.0 0 0.0 0.3 0.0 0.0
3901760.0 4.82 0.0 0 0.0 0.3 0.0 0.0
3901770.0 4.93 0.0 0 0.0 0.3 0.0 0.0
3901780.0 5.97 0.0 0 0.0 0.3 0.0 0.0
3901790.0 5.85 0.0 0 0.0 0.3 0.0 0.0
3901800.0 5.32 0.0 0 0.0 0.3 0.0 0.0
3901810.0 5.24 0.0 0 0.0 0.3 0.0 0.0
3901820.0 4.71 0.0 0 0.0 0.3 0.0 0.0
3901830.0 4.88 0.0 0 0.0 0.3 0.0 0.0
3901840.0 5.9 0.0 0 0.0 0.3 0.0 0.0
3901850.0 5.96 0.0 0 0.0 0.3 0.0 0.0
3901860.0 5.55 0.0 0 0.0 0.3 0.0 0.0
3901870.0 5.86 0.0 0 0.0 0.3 0.0 0.0
3901880.0 6.78 0.0 0 0.0 0.3 0.0 0.0
3901890.0 6.05 0.0 0 0.0 0.3 0.0 0.0
3901900.0 5.72 0.0 0 0.0 0.3 0.0 0.0
3901910.0 5.95 0.0 0 0.0 0.3 0.0 0.0
3901920.0 5.98 0.0 0 0.0 0.3 0.0 0.0
3901930.0 5.63 0.0 0 0.0 0.3 0.0 0.0
3901940.0 5.02 0.0 0 0.0 0.3 0.0 0.0
3901950.0 4.64 0.0 0 0.0 0.3 0.0 0.0
3901960.0 4.6 0.0 0 0.0 0.3 0.0 0.0
3901970.0 4.98 0.0 0 0.0 0.3 0.0 0.0
3901980.0 5.48 0.0 0 0.0 0.3 0.0 0.0
3901990.0 5.27 0.0 0 0.0 0.3 0.0 0.0
3902000.0 5.57 0.0 0 0.0 0.3 0.0 0.0
3902010.0 5.28 0.0 0 0.0 0.3 0.0 0.0
3902020.0 5.48 0.0 0 0.0 0.3 0.0 0.0
3902030.0 5.65 0.0 0 0.0 0.3 0.0 0.0
3902040.0 5.76 0.0 0 0.0 0.3 0.0 0.0
3902050.0 5.28 0.0 0 0.0 0.3 0.0 0.0
3902060.0 5.24 0.0 0 0.0 0.3 0.0 0.0
3902070.0 5.32 0.0 0 0.0 0.3 0.0 0.0
3902080.0 5.63 0.0 0 0.0 0.3 0.0 0.0
3902090.0 5.71 0.0 0 0.0 0.3 0.0 0.0
3902100.0 4.99 0.0 0 0.0 0.3 0.0 0.0
3902110.0 4.7 0.0 0 0.0 0.3 0.0 0.0
3902120.0 4.52 0.0 0 0.0 0.3 0.0 0.0
3902130.0 4.19 0.0 0 0.0 0.3 0.0 0.0
3902140.0 4.83 0.0 0 0.0 0.3 0.0 0.0
3902150.0 5.34 0.0 0 0.0 0.3 0.0 0.0
3902160.0 6.19 0.0 0 0.0 0.3 0.0 0.0
3902170.0 5.34 0.0 0 0.0 0.3 0.0 0.0
3902180.0 5.22 0.0 0 0.0 0.3 0.0 0.0
3902190.0 7.56 0.0 0 0.0 0.3 0.0 0.0
3902200.0 7.28 0.0 0 0.0 0.3 0.0 0.0
3902210.0 6.91 0.0 0 0.0 0.3 0.0 0.0
3902220.0 7.53 0.0 0 0.0 0.3 0.0 0.0
3902230.0 5.89 0.0 0 0.0 0.3 0.0 0.0
3902240.0 6.18 0.0 0 0.0 0.3 0.0 0.0
3902250.0 5.44 0.0 0 0.0 0.3 0.0 0.0
3902260.0 5.37 0.0 0 0.0 0.3 0.0 0.0
3902270.0 5.9 0.0 0 0.0 0.3 0.0 0.0
3902280.0 6.42 0.0 0 0.0 0.3 0.0 0.0
3902290.0 5.61 0.0 0 0.0 0.3 0.0 0.0
3902300.0 5.87 0.0 0 0.0 0.3 0.0 0.0
3902310.0 6.97 0.0 0 0.0 0.3 0.0 0.0
3902320.0 6.96 0.0 0 0.0 0.3 0.0 0.0
3902330.0 6.52 0.0 0 0.0 0.3 0.0 0.0
3902340.0 6.67 0.0 0 0.0 0.3 0.0 0.0
3902350.0 6.74 0.0 0 0.0 0.3 0.0 0.0
3902360.0 6.9 0.0 0 0.0 0.3 0.0 0.0
3902370.0 7.03 0.0 0 0.0 0.3 0.0 0.0
3902380.0 6.52 0.0 0 0.0 0.3 0.0 0.0
3902390.0 6.27 0.0 0 0.0 0.3 0.0 0.0
3902400.0 7.1 0.0 0 0.0 0.3 0.0 0.0
3902410.0 6.38 0.0 0 0.0 0.3 0.0 0.0
3902420.0 5.92 0.0 0 0.0 0.3 0.0 0.0
3902430.0 6.24 0.0 0 0.0 0.3 0.0 0.0
3902440.0 6.39 0.0 0 0.0 0.3 0.0 0.0
3902450.0 6.88 0.0 0 0.0 0.3 0.0 0.0
3902460.0 7.2 0.0 0 0.0 0.3 0.0 0.0
3902470.0 8.29 0.0 0 0.0 0.3 0.0 0.0
3902480.0 7.76 0.0 0 0.0 0.3 0.0 0.0
3902490.0 7.34 0.0 0 0.0 0.3 0.0 0.0
3902500.0 7.72 0.0 0 0.0 0.3 0.0 0.0
3902510.0 7.07 0.0 0 0.0 0.3 0.0 0.0
3902520.0 7.47 0.0 0 0.0 0.3 0.0 0.0
3902530.0 6.23 0.0 0 0.0 0.3 0.0 0.0
3902540.0 6.29 0.0 0 0.0 0.3 0.0 0.0
3902550.0 6.33 0.0 0 0.0 0.3 0.0 0.0
3902560.0 7.37 0.0 0 0.0 0.3 0.0 0.0
3902570.0 7.42 0.0 0 0.0 0.3 0.0 0.0
3902580.0 6.04 0.0 0 0.0 0.3 0.0 0.0
3902590.0 5.63 0.0 0 0.0 0.3 0.0 0.0
3902600.0 5.32 0.0 0 0.0 0.3 0.0 0.0
3902610.0 4.33 0.0 0 0.0 0.3 0.0 0.0
3902620.0 4.43 0.0 0 0.0 0.3 0.0 0.0
3902630.0 4.51 0.0 0 0.0 0.3 0.0 0.0
3902640.0 4.4 0.0 0 0.0 0.3 0.0 0.0
3902650.0 4.68 0.0 0 0.0 0.3 0.0 0.0
3902660.0 4.53 0.0 0 0.0 0.3 0.0 0.0
3902670.0 5.45 0.0 0 0.0 0.3 0.0 0.0
3902680.0 5.6 0.0 0 0.0 0.3 0.0 0.0
3902690.0 5.59 0.0 0 0.0 0.3 0.0 0.0
3902700.0 4.8 0.0 0 0.0 0.3 0.0 0.0
3902710.0 5.01 0.0 0 0.0 0.3 0.0 0.0
3902720.0 5.02 0.0 0 0.0 0.3 0.0 0.0
3902730.0 4.74 0.0 0 0.0 0.3 0.0 0.0
3902740.0 5.59 0.0 0 0.0 0.3 0.0 0.0
3902750.0 5.39 0.0 0 0.0 0.3 0.0 0.0
3902760.0 4.54 0.0 0 0.0 0.3 0.0 0.0
3902770.0 4.5 0.0 0 0.0 0.3 0.0 0.0
3902780.0 5.33 0.0 0 0.0 0.3 0.0 0.0
3902790.0 5.36 0.0 0 0.0 0.3 0.0 0.0
3902800.0 5.28 0.0 0 0.0 0.3 0.0 0.0
3902810.0 5.52 0.0 0 0.0 0.3 0.0 0.0
3902820.0 5.74 0.0 0 0.0 0.3 0.0 0.0
3902830.0 6.49 0.0 0 0.0 0.3 0.0 0.0
3902840.0 5.32 0.0 0 0.0 0.3 0.0 0.0
3902850.0 4.53 0.0 0 0.0 0.3 0.0 0.0
3902860.0 4.64 0.0 0 0.0 0.3 0.0 0.0
3902870.0 4.26 0.0 0 0.0 0.3 0.0 0.0
3902880.0 3.86 0.0 0 0.0 0.3 0.0 0.0
3902890.0 4.32 0.0 0 0.0 0.3 0.0 0.0
3902900.0 3.18 0.0 0 0.0 0.3 0.0 0.0
3902910.0 3.13 0.0 0 0.0 0.3 0.0 0.0
3902920.0 4.14 0.0 0 0.0 0.3 0.0 0.0
3902930.0 4.25 0.0 0 0.0 0.3 0.0 0.0
3902940.0 4.28 0.0 0 0.0 0.3 0.0 0.0
3902950.0 4.83 0.0 0 0.0 0.3 0.0 0.0
3902960.0 4.01 0.0 0 0.0 0.3 0.0 0.0
3902970.0 3.76 0.0 0 0.0 0.3 0.0 0.0
3902980.0 4.49 0.0 0 0.0 0.3 0.0 0.0
3902990.0 4.71 0.0 0 0.0 0.3 0.0 0.0
3903000.0 3.5 0.0 0 0.0 0.3 0.0 0.0
3903010.0 4.67 0.0 0 0.0 0.3 0.0 0.0
3903020.0 5.18 0.0 0 0.0 0.3 0.0 0.0
3903030.0 4.71 0.0 0 0.0 0.3 0.0 0.0
3903040.0 3.21 0.0 0 0.0 0.3 0.0 0.0
3903050.0 3.31 0.0 0 0.0 0.3 0.0 0.0
3903060.0 5.16 0.0 0 0.0 0.3 0.0 0.0
3903070.0 5.76 0.0 0 0.0 0.3 0.0 0.0
3903080.0 6.52 0.0 0 0.0 0.3 0.0 0.0
3903090.0 5.67 0.0 0 0.0 0.3 0.0 0.0
3903100.0 5.81 0.0 0 0.0 0.3 0.0 0.0
3903110.0 5.06 0.0 0 0.0 0.3 0.0 0.0
3903120.0 4.16 0.0 0 0.0 0.3 0.0 0.0
3903130.0 4.69 0.0 0 0.0 0.3 0.0 0.0
3903140.0 5.35 0.0 0 0.0 0.3 0.0 0.0
3903150.0 4.86 0.0 0 0.0 0.3 0.0 0.0
3903160.0 4.19 0.0 0 0.0 0.3 0.0 0.0
3903170.0 5.0 0.0 0 0.0 0.3 0.0 0.0
3903180.0 5.95 0.0 0 0.0 0.3 0.0 0.0
3903190.0 5.99 0.0 0 0.0 0.3 0.0 0.0
3903200.0 5.96 0.0 0 0.0 0.3 0.0 0.0
3903210.0 5.93 0.0 0 0.0 0.3 0.0 0.0
3903220.0 5.27 0.0 0 0.0 0.3 0.0 0.0
3903230.0 5.16 0.0 0 0.0 0.3 0.0 0.0
3903240.0 5.5 0.0 0 0.0 0.3 0.0 0.0
3903250.0 5.04 0.0 0 0.0 0.3 0.0 0.0
3903260.0 4.99 0.0 0 0.0 0.3 0.0 0.0
3903270.0 4.84 0.0 0 0.0 0.3 0.0 0.0
3903280.0 6.23 0.0 0 0.0 0.3 0.0 0.0
3903290.0 6.56 0.0 0 0.0 0.3 0.0 0.0
3903300.0 6.3 0.0 0 0.0 0.3 0.0 0.0
3903310.0 6.94 0.0 0 0.0 0.3 0.0 0.0
3903320.0 7.2 0.0 0 0.0 0.3 0.0 0.0
3903330.0 6.54 0.0 0 0.0 0.3 0.0 0.0
3903340.0 4.99 0.0 0 0.0 0.3 0.0 0.0
3903350.0 6.04 0.0 0 0.0 0.3 0.0 0.0
3903360.0 6.68 0.0 0 0.0 0.3 0.0 0.0
3903370.0 6.58 0.0 0 0.0 0.3 0.0 0.0
3903380.0 6.07 0.0 0 0.0 0.3 0.0 0.0
3903390.0 6.58 0.0 0 0.0 0.3 0.0 0.0
3903400.0 5.58 0.0 0 0.0 0.3 0.0 0.0
3903410.0 5.5 0.0 0 0.0 0.3 0.0 0.0
3903420.0 5.82 0.0 0 0.0 0.3 0.0 0.0
3903430.0 6.79 0.0 0 0.0 0.3 0.0 0.0
3903440.0 6.64 0.0 0 0.0 0.3 0.0 0.0
3903450.0 5.54 0.0 0 0.0 0.3 0.0 0.0
3903460.0 4.03 0.0 0 0.0 0.3 0.0 0.0
3903470.0 4.34 0.0 0 0.0 0.3 0.0 0.0
3903480.0 5.52 0.0 0 0.0 0.3 0.0 0.0
3903490.0 4.91 0.0 0 0.0 0.3 0.0 0.0
3903500.0 3.67 0.0 0 0.0 0.3 0.0 0.0
3903510.0 2.98 0.0 0 0.0 0.3 0.0 0.0
3903520.0 4.35 0.0 0 0.0 0.3 0.0 0.0
3903530.0 4.3 0.0 0 0.0 0.3 0.0 0.0
3903540.0 3.07 0.0 0 0.0 0.3 0.0 0.0
3903550.0 4.4 0.0 0 0.0 0.3 0.0 0.0
3903560.0 5.39 0.0 0 0.0 0.3 0.0 0.0
3903570.0 5.14 0.0 0 0.0 0.3 0.0 0.0
3903580.0 5.08 0.0 0 0.0 0.3 0.0 0.0
3903590.0 5.15 0.0 0 0.0 0.3 0.0 0.0
3903600.0 5.66 0.0 0 0.0 0.3 0.0 0.0
3903610.0 6.16 0.0 0 0.0 0.3 0.0 0.0
3903620.0 6.27 0.0 0 0.0 0.3 0.0 0.0
3903630.0 6.29 0.0 0 0.0 0.3 0.0 0.0
3903640.0 6.81 0.0 0 0.0 0.3 0.0 0.0
3903650.0 6.45 0.0 0 0.0 0.3 0.0 0.0
3903660.0 6.08 0.0 0 0.0 0.3 0.0 0.0
3903670.0 5.08 0.0 0 0.0 0.3 0.0 0.0
3903680.0 5.15 0.0 0 0.0 0.3 0.0 0.0
3903690.0 5.8 0.0 0 0.0 0.3 0.0 0.0
3903700.0 5.28 0.0 0 0.0 0.3 0.0 0.0
3903710.0 4.89 0.0 0 0.0 0.3 0.0 0.0
3903720.0 4.64 0.0 0 0.0 0.3 0.0 0.0
3903730.0 7.19 0.0 0 0.0 0.3 0.0 0.0
3903740.0 7.82 0.0 0 0.0 0.3 0.0 0.0
3903750.0 8.33 0.0 0 0.0 0.3 0.0 0.0
3903760.0 8.14 0.0 0 0.0 0.3 0.0 0.0
3903770.0 7.21 0.0 0 0.0 0.3 0.0 0.0
3903780.0 6.71 0.0 0 0.0 0.3 0.0 0.0
3903790.0 6.84 0.0 0 0.0 0.3 0.0 0.0
3903800.0 7.36 0.0 0 0.0 0.3 0.0 0.0
3903810.0 6.33 0.0 0 0.0 0.3 0.0 0.0
3903820.0 7.18 0.0 0 0.0 0.3 0.0 0.0
3903830.0 7.61 0.0 0 0.0 0.3 0.0 0.0
3903840.0 6.66 0.0 0 0.0 0.3 0.0 0.0
3903850.0 7.11 0.0 0 0.0 0.3 0.0 0.0
3903860.0 7.06 0.0 0 0.0 0.3 0.0 0.0
3903870.0 7.84 0.0 0 0.0 0.3 0.0 0.0
3903880.0 7.37 0.0 0 0.0 0.3 0.0 0.0
3903890.0 7.63 0.0 0 0.0 0.3 0.0 0.0
3903900.0 8.77 0.0 0 0.0 0.3 0.0 0.0
3903910.0 6.6 0.0 0 0.0 0.3 0.0 0.0
3903920.0 6.53 0.0 0 0.0 0.3 0.0 0.0
3903930.0 7.59 0.0 0 0.0 0.3 0.0 0.0
3903940.0 8.03 0.0 0 0.0 0.3 0.0 0.0
3903950.0 7.97 0.0 0 0.0 0.3 0.0 0.0
3903960.0 7.29 0.0 0 0.0 0.3 0.0 0.0
3903970.0 7.19 0.0 0 0.0 0.3 0.0 0.0
3903980.0 7.72 0.0 0 0.0 0.3 0.0 0.0
3903990.0 8.2 0.0 0 0.0 0.3 0.0 0.0
3904000.0 7.46 0.0 0 0.0 0.3 0.0 0.0
3904010.0 7.36 0.0 0 0.0 0.3 0.0 0.0
3904020.0 7.42 0.0 0 0.0 0.3 0.0 0.0
3904030.0 7.49 0.0 0 0.0 0.3 0.0 0.0
3904040.0 7.28 0.0 0 0.0 0.3 0.0 0.0
3904050.0 6.7 0.0 0 0.0 0.3 0.0 0.0
3904060.0 6.49 0.0 0 0.0 0.3 0.0 0.0
3904070.0 5.37 0.0 0 0.0 0.3 0.0 0.0
3904080.0 5.87 0.0 0 0.0 0.3 0.0 0.0
3904090.0 6.57 0.0 0 0.0 0.3 0.0 0.0
3904100.0 7.03 0.0 0 0.0 0.3 0.0 0.0
3904110.0 6.95 0.0 0 0.0 0.3 0.0 0.0
3904120.0 7.2 0.0 0 0.0 0.3 0.0 0.0
3904130.0 6.5 0.0 0 0.0 0.3 0.0 0.0
3904140.0 6.03 0.0 0 0.0 0.3 0.0 0.0
3904150.0 5.66 0.0 0 0.0 0.3 0.0 0.0
3904160.0 5.06 0.0 0 0.0 0.3 0.0 0.0
3904170.0 4.84 0.0 0 0.0 0.3 0.0 0.0
3904180.0 4.36 0.0 0 0.0 0.3 0.0 0.0
3904190.0 4.4 0.0 0 0.0 0.3 0.0 0.0
3904200.0 4.49 0.0 0 0.0 0.3 0.0 0.0
3904210.0 4.83 0.0 0 0.0 0.3 0.0 0.0
3904220.0 4.12 0.0 0 0.0 0.3 0.0 0.0
3904230.0 5.29 0.0 0 0.0 0.3 0.0 0.0
3904240.0 4.78 0.0 0 0.0 0.3 0.0 0.0
3904250.0 4.59 0.0 0 0.0 0.3 0.0 0.0
3904260.0 4.87 0.0 0 0.0 0.3 0.0 0.0
3904270.0 4.17 0.0 0 0.0 0.3 0.0 0.0
3904280.0 5.0 0.0 0 0.0 0.3 0.0 0.0
3904290.0 6.75 0.0 0 0.0 0.3 0.0 0.0
3904300.0 7.98 0.0 0 0.0 0.3 0.0 0.0
3904310.0 7.89 0.0 0 0.0 0.3 0.0 0.0
3904320.0 8.15 0.0 0 0.0 0.3 0.0 0.0
3904330.0 8.35 0.0 0 0.0 0.3 0.0 0.0
3904340.0 7.77 0.0 0 0.0 0.3 0.0 0.0
3904350.0 7.7 0.0 0 0.0 0.3 0.0 0.0
3904360.0 6.91 0.0 0 0.0 0.3 0.0 0.0
3904370.0 5.36 0.0 0 0.0 0.3 0.0 0.0
3904380.0 6.68 0.0 0 0.0 0.3 0.0 0.0
3904390.0 6.45 0.0 0 0.0 0.3 0.0 0.0
3904400.0 6.45 0.0 0 0.0 0.3 0.0 0.0
3904410.0 7.13 0.0 0 0.0 0.3 0.0 0.0
3904420.0 6.23 0.0 0 0.0 0.3 0.0 0.0
3904430.0 5.53 0.0 0 0.0 0.3 0.0 0.0
3904440.0 6.65 0.0 0 0.0 0.3 0.0 0.0
3904450.0 6.27 0.0 0 0.0 0.3 0.0 0.0
3904460.0 6.36 0.0 0 0.0 0.3 0.0 0.0
3904470.0 6.07 0.0 0 0.0 0.3 0.0 0.0
3904480.0 7.12 0.0 0 0.0 0.3 0.0 0.0
3904490.0 6.57 0.0 0 0.0 0.3 0.0 0.0
3904500.0 7.18 0.0 0 0.0 0.3 0.0 0.0
3904510.0 7.18 0.0 0 0.0 0.3 0.0 0.0
3904520.0 7.54 0.0 0 0.0 0.3 0.0 0.0
3904530.0 7.43 0.0 0 0.0 0.3 0.0 0.0
3904540.0 8.07 0.0 0 0.0 0.3 0.0 0.0
3904550.0 8.76 0.0 0 0.0 0.3 0.0 0.0
3904560.0 8.54 0.0 0 0.0 0.3 0.0 0.0
3904570.0 7.2 0.0 0 0.0 0.3 0.0 0.0
3904580.0 6.15 0.0 0 0.0 0.3 0.0 0.0
3904590.0 6.11 0.0 0 0.0 0.3 0.0 0.0
3904600.0 6.79 0.0 0 0.0 0.3 0.0 0.0
3904610.0 6.95 0.0 0 0.0 0.3 0.0 0.0
3904620.0 6.5 0.0 0 0.0 0.3 0.0 0.0
3904630.0 5.85 0.0 0 0.0 0.3 0.0 0.0
3904640.0 5.47 0.0 0 0.0 0.3 0.0 0.0
3904650.0 6.01 0.0 0 0.0 0.3 0.0 0.0
3904660.0 6.19 0.0 0 0.0 0.3 0.0 0.0
3904670.0 5.94 0.0 0 0.0 0.3 0.0 0.0
3904680.0 5.89 0.0 0 0.0 0.3 0.0 0.0
3904690.0 5.96 0.0 0 0.0 0.3 0.0 0.0
3904700.0 5.34 0.0 0 0.0 0.3 0.0 0.0
3904710.0 5.87 0.0 0 0.0 0.3 0.0 0.0
3904720.0 5.77 0.0 0 0.0 0.3 0.0 0.0
3904730.0 6.15 0.0 0 0.0 0.3 0.0 0.0
3904740.0 6.82 0.0 0 0.0 0.3 0.0 0.0
3904750.0 7.75 0.0 0 0.0 0.3 0.0 0.0
3904760.0 6.99 0.0 0 0.0 0.3 0.0 0.0
3904770.0 6.77 0.0 0 0.0 0.3 0.0 0.0
3904780.0 6.15 0.0 0 0.0 0.3 0.0 0.0
3904790.0 5.53 0.0 0 0.0 0.3 0.0 0.0
3904800.0 5.38 0.0 0 0.0 0.3 0.0 0.0
3904810.0 4.73 0.0 0 0.0 0.3 0.0 0.0
3904820.0 6.17 0.0 0 0.0 0.3 0.0 0.0
3904830.0 7.01 0.0 0 0.0 0.3 0.0 0.0
3904840.0 6.67 0.0 0 0.0 0.3 0.0 0.0
3904850.0 5.58 0.0 0 0.0 0.3 0.0 0.0
3904860.0 6.48 0.0 0 0.0 0.3 0.0 0.0
3904870.0 6.87 0.0 0 0.0 0.3 0.0 0.0
3904880.0 7.06 0.0 0 0.0 0.3 0.0 0.0
3904890.0 6.96 0.0 0 0.0 0.3 0.0 0.0
3904900.0 6.92 0.0 0 0.0 0.3 0.0 0.0
3904910.0 6.91 0.0 0 0.0 0.3 0.0 0.0
3904920.0 6.73 0.0 0 0.0 0.3 0.0 0.0
3904930.0 6.21 0.0 0 0.0 0.3 0.0 0.0
3904940.0 6.29 0.0 0 0.0 0.3 0.0 0.0
3904950.0 5.59 0.0 0 0.0 0.3 0.0 0.0
3904960.0 5.03 0.0 0 0.0 0.3 0.0 0.0
3904970.0 5.69 0.0 0 0.0 0.3 0.0 0.0
3904980.0 5.92 0.0 0 0.0 0.3 0.0 0.0
3904990.0 6.13 0.0 0 0.0 0.3 0.0 0.0
3905000.0 5.77 0.0 0 0.0 0.3 0.0 0.0
3905010.0 6.37 0.0 0 0.0 0.3 0.0 0.0
3905020.0 5.82 0.0 0 0.0 0.3 0.0 0.0
3905030.0 5.97 0.0 0 0.0 0.3 0.0 0.0
3905040.0 6.48 0.0 0 0.0 0.3 0.0 0.0
3905050.0 6.16 0.0 0 0.0 0.3 0.0 0.0
3905060.0 5.9 0.0 0 0.0 0.3 0.0 0.0
3905070.0 5.73 0.0 0 0.0 0.3 0.0 0.0
3905080.0 5.5 0.0 0 0.0 0.3 0.0 0.0
3905090.0 5.5 0.0 0 0.0 0.3 0.0 0.0
3905100.0 5.77 0.0 0 0.0 0.3 0.0 0.0
3905110.0 6.34 0.0 0 0.0 0.3 0.0 0.0
3905120.0 5.76 0.0 0 0.0 0.3 0.0 0.0
3905130.0 5.69 0.0 0 0.0 0.3 0.0 0.0
3905140.0 5.03 0.0 0 0.0 0.3 0.0 0.0
3905150.0 5.75 0.0 0 0.0 0.3 0.0 0.0
3905160.0 5.61 0.0 0 0.0 0.3 0.0 0.0
3905170.0 5.35 0.0 0 0.0 0.3 0.0 0.0
3905180.0 5.89 0.0 0 0.0 0.3 0.0 0.0
3905190.0 5.57 0.0 0 0.0 0.3 0.0 0.0
3905200.0 6.4 0.0 0 0.0 0.3 0.0 0.0
3905210.0 6.67 0.0 0 0.0 0.3 0.0 0.0
3905220.0 6.42 0.0 0 0.0 0.3 0.0 0.0
3905230.0 5.87 0.0 0 0.0 0.3 0.0 0.0
3905240.0 5.52 0.0 0 0.0 0.3 0.0 0.0
3905250.0 5.75 0.0 0 0.0 0.3 0.0 0.0
3905260.0 6.24 0.0 0 0.0 0.3 0.0 0.0
3905270.0 6.25 0.0 0 0.0 0.3 0.0 0.0
3905280.0 6.25 0.0 0 0.0 0.3 0.0 0.0
3905290.0 6.26 0.0 0 0.0 0.3 0.0 0.0
3905300.0 5.69 0.0 0 0.0 0.3 0.0 0.0
3905310.0 5.59 0.0 0 0.0 0.3 0.0 0.0
3905320.0 4.94 0.0 0 0.0 0.3 0.0 0.0
3905330.0 5.04 0.0 0 0.0 0.3 0.0 0.0
3905340.0 5.17 0.0 0 0.0 0.3 0.0 0.0
3905350.0 5.64 0.0 0 0.0 0.3 0.0 0.0
3905360.0 6.51 0.0 0 0.0 0.3 0.0 0.0
3905370.0 6.15 0.0 0 0.0 0.3 0.0 0.0
3905380.0 5.22 0.0 0 0.0 0.3 0.0 0.0
3905390.0 5.0 0.0 0 0.0 0.3 0.0 0.0
3905400.0 5.26 0.0 0 0.0 0.3 0.0 0.0
3905410.0 5.94 0.0 0 0.0 0.3 0.0 0.0
3905420.0 5.7 0.0 0 0.0 0.3 0.0 0.0
3905430.0 5.61 0.0 0 0.0 0.3 0.0 0.0
3905440.0 6.19 0.0 0 0.0 0.3 0.0 0.0
3905450.0 5.51 0.0 0 0.0 0.3 0.0 0.0
3905460.0 4.76 0.0 0 0.0 0.3 0.0 0.0
3905470.0 5.91 0.0 0 0.0 0.3 0.0 0.0
3905480.0 6.24 0.0 0 0.0 0.3 0.0 0.0
3905490.0 6.23 0.0 0 0.0 0.3 0.0 0.0
3905500.0 5.7 0.0 0 0.0 0.3 0.0 0.0
3905510.0 5.41 0.0 0 0.0 0.3 0.0 0.0
3905520.0 5.84 0.0 0 0.0 0.3 0.0 0.0
3905530.0 5.79 0.0 0 0.0 0.3 0.0 0.0
3905540.0 5.77 0.0 0 0.0 0.3 0.0 0.0
3905550.0 6.15 0.0 0 0.0 0.3 0.0 0.0
3905560.0 6.5 0.0 0 0.0 0.3 0.0 0.0
3905570.0 6.27 0.0 0 0.0 0.3 0.0 0.0
3905580.0 6.55 0.0 0 0.0 0.3 0.0 0.0
3905590.0 7.84 0.0 0 0.0 0.3 0.0 0.0
3905600.0 7.89 0.0 0 0.0 0.3 0.0 0.0
3905610.0 8.01 0.0 0 0.0 0.3 0.0 0.0
3905620.0 7.16 0.0 0 0.0 0.3 0.0 0.0
3905630.0 6.69 0.0 0 0.0 0.3 0.0 0.0
3905640.0 6.97 0.0 0 0.0 0.3 0.0 0.0
3905650.0 6.95 0.0 0 0.0 0.3 0.0 0.0
3905660.0 6.22 0.0 0 0.0 0.3 0.0 0.0
3905670.0 6.31 0.0 0 0.0 0.3 0.0 0.0
3905680.0 6.85 0.0 0 0.0 0.3 0.0 0.0
3905690.0 6.74 0.0 0 0.0 0.3 0.0 0.0
3905700.0 6.46 0.0 0 0.0 0.3 0.0 0.0
3905710.0 5.7 0.0 0 0.0 0.3 0.0 0.0
3905720.0 4.86 0.0 0 0.0 0.3 0.0 0.0
3905730.0 4.87 0.0 0 0.0 0.3 0.0 0.0
3905740.0 4.52 0.0 0 0.0 0.3 0.0 0.0
3905750.0 5.33 0.0 0 0.0 0.3 0.0 0.0
3905760.0 6.46 0.0 0 0.0 0.3 0.0 0.0
3905770.0 5.99 0.0 0 0.0 0.3 0.0 0.0
3905780.0 5.26 0.0 0 0.0 0.3 0.0 0.0
3905790.0 5.41 0.0 0 0.0 0.3 0.0 0.0
3905800.0 5.23 0.0 0 0.0 0.3 0.0 0.0
3905810.0 6.04 0.0 0 0.0 0.3 0.0 0.0
3905820.0 6.01 0.0 0 0.0 0.3 0.0 0.0
3905830.0 7.22 0.0 0 0.0 0.3 0.0 0.0
3905840.0 7.53 0.0 0 0.0 0.3 0.0 0.0
3905850.0 7.9 0.0 0 0.0 0.3 0.0 0.0
3905860.0 7.08 0.0 0 0.0 0.3 0.0 0.0
3905870.0 6.67 0.0 0 0.0 0.3 0.0 0.0
3905880.0 6.56 0.0 0 0.0 0.3 0.0 0.0
3905890.0 6.5 0.0 0 0.0 0.3 0.0 0.0
3905900.0 6.4 0.0 0 0.0 0.3 0.0 0.0
3905910.0 5.79 0.0 0 0.0 0.3 0.0 0.0
3905920.0 4.6 0.0 0 0.0 0.3 0.0 0.0
3905930.0 4.78 0.0 0 0.0 0.3 0.0 0.0
3905940.0 5.48 0.0 0 0.0 0.3 0.0 0.0
3905950.0 5.88 0.0 0 0.0 0.3 0.0 0.0
3905960.0 5.41 0.0 0 0.0 0.3 0.0 0.0
3905970.0 4.05 0.0 0 0.0 0.3 0.0 0.0
3905980.0 4.04 0.0 0 0.0 0.3 0.0 0.0
3905990.0 4.32 0.0 0 0.0 0.3 0.0 0.0
3906000.0 4.09 0.0 0 0.0 0.3 0.0 0.0
3906010.0 4.59 0.0 0 0.0 0.3 0.0 0.0
3906020.0 5.94 0.0 0 0.0 0.3 0.0 0.0
3906030.0 5.62 0.0 0 0.0 0.3 0.0 0.0
3906040.0 4.52 0.0 0 0.0 0.3 0.0 0.0
3906050.0 5.61 0.0 0 0.0 0.3 0.0 0.0
3906060.0 5.3 0.0 0 0.0 0.3 0.0 0.0
3906070.0 4.85 0.0 0 0.0 0.3 0.0 0.0
